 100
  
H  5.051314  4.237439  0.076917
H  4.718293  0.195718  3.788590
H  4.550646  4.032054  2.707995
H  1.403071  2.593568  3.472376
H  0.724986  3.921392  2.230466
H  5.829635  2.440595  0.936644
H  0.465469  5.646395  3.499197
H  2.211737  4.930777  3.483398
H  2.431804  0.719321  2.674241
H  5.837030  0.089013  0.495581
H  4.582804  3.031387  4.162070
H  5.005117  4.092543  4.149059
H  1.034151  0.456427  1.373958
H  5.073517  3.232947  5.237286
H  1.401868  4.357288  1.129279
H  1.066743  1.706083  4.324776
H  1.572280  2.220498  4.948603
H  4.173870  5.928456  1.638523
H  1.030652  4.715094  3.701209
H  5.900010  1.928744  4.464530
H  4.128460  3.387820  1.655237
H  4.178514  1.043881  0.613664
H  3.634272  2.660255  4.316092
H  3.052620  3.756942  0.263511
H  0.464018  0.366192  0.202615
H  2.678554  2.398562  3.689217
H  0.033201  2.989223  2.341042
H  0.088791  2.837339  5.481065
H  2.142193  1.402110  0.486671
H  1.860513  3.719624  3.904030
H  4.574173  2.320697  1.642020
H  0.095765  5.541839  1.086766
H  3.564154  2.014688  3.385987
H  4.661885  0.170492  0.240073
H  2.761616  2.335939  4.677110
H  2.470714  3.715421  1.648411
H  2.140191  1.912497  2.670213
H  2.900399  5.228752  2.753389
H  4.475161  4.693013  1.207888
H  4.829907  0.695856  2.698496
H  0.489746  5.488639  2.138367
H  0.338535  5.435321  4.509171
H  5.045245  1.385640  4.568110
H  5.422136  4.985938  1.744388
H  3.967612  1.291115  4.640593
H  0.462175  1.679118  3.426428
H  5.767867  4.865830  0.493164
H  1.339699  1.225962  2.891916
H  0.433526  3.407396  3.198928
H  4.212344  0.310016  4.915540
H  3.795439  3.661405  3.990260
H  5.044184  5.585954  1.031338
H  5.000125  1.160593  5.561893
H  5.126812  3.367686  1.507197
H  1.012876  0.421938  5.384119
H  2.008319  5.719013  5.228248
H  5.991192  3.346165  4.500661
H  1.252237  5.480048  1.349368
H  2.202457  3.121408  2.974384
H  3.521558  3.030193  3.097929
H  0.674164  1.938105  1.654157
H  3.401015  5.208704  1.735006
H  1.928410  3.214955  5.024344
H  3.879657  5.824330  2.570950
H  0.281205  3.291111  0.767454
H  2.072253  1.154828  3.680155
H  3.625764  5.896559  0.529546
H  5.500128  1.120630  1.940687
H  1.235530  0.682257  4.214936
H  4.591759  2.002088  3.717719
H  3.507825  1.105548  5.781016
H  1.326008  3.463029  0.473625
H  5.162892  5.975071  2.025496
H  1.020728  4.789853  5.187363
H  1.127056  2.696769  5.761772
H  3.855571  0.059646  2.780837
H  3.597233  2.420008  0.727707
H  2.141879  4.679612  4.680033
H  1.487863  0.271194  2.200358
H  1.019550  1.167506  0.696912
H  3.108028  5.932020  4.590981
H  0.776062  2.745229  4.337992
H  1.658391  4.122604  2.919009
H  4.063821  4.660832  5.726139
H  3.652711  0.120609  3.836110
H  2.504008  5.892429  2.155719
H  3.078003  4.838880  0.851423
H  4.488313  2.553478  2.756428
H  5.650257  4.099879  2.997020
H  5.963044  0.865608  2.842203
H  2.280278  3.100075  0.003597
H  3.262761  4.022048  5.088982
H  2.269365  5.421729  0.652305
H  3.466724  2.990900  5.382664
H  4.065057  1.050602  3.217080
H  4.051265  4.296676  0.290997
H  0.547516  1.747210  5.663728
H  2.284818  4.864989  1.773388
H  1.871959  1.216387  5.394432
H  3.167572  4.358821  2.286311
