 100
  
H  4.032778  0.629685  3.109691
H  1.107166  4.036777  2.911965
H  2.682645  0.504777  3.194357
H  4.032977  5.956289  2.325156
H  4.109941  4.149560  3.278970
H  1.903209  3.256039  1.170519
H  5.081595  0.864676  3.529697
H  3.404168  3.343364  2.858721
H  5.317338  0.382267  2.599454
H  3.897553  3.947450  4.566461
H  3.563919  2.256888  3.234981
H  4.429780  3.081573  2.945520
H  4.633923  3.195773  0.775290
H  0.293005  5.486821  4.688871
H  5.151693  3.867075  2.654709
H  5.980906  0.630609  3.918115
H  2.203038  4.100343  3.115987
H  4.737298  3.882037  5.134910
H  4.777169  4.864531  0.634630
H  0.277568  3.832773  5.991020
H  0.673137  5.113908  5.574359
H  3.566291  0.197718  5.037146
H  2.087823  0.381365  4.176545
H  5.693645  4.731115  3.104239
H  4.366143  5.065850  4.583572
H  1.644591  4.306036  1.673850
H  5.356100  1.306576  1.927415
H  1.112025  4.190785  5.424776
H  0.435065  4.823997  4.016773
H  1.976611  0.135228  1.384453
H  2.331048  5.952626  0.201557
H  3.754758  2.940691  4.031894
H  0.469673  5.547339  0.317809
H  2.624334  3.014925  4.185603
H  0.540141  3.838157  0.019750
H  5.623036  3.343163  1.118795
H  5.014802  0.709208  4.832305
H  4.846267  0.787571  1.061937
H  5.491037  1.748760  5.312362
H  1.705136  2.213811  0.549732
H  3.077276  4.331082  0.285122
H  3.228937  4.485526  1.282547
H  1.522471  1.694488  5.257536
H  2.792252  2.920525  1.724916
H  5.531033  4.586586  5.734404
H  2.320182  3.732652  2.159374
H  0.672727  1.049142  5.321106
H  3.968315  0.273545  0.601208
H  5.939991  4.315379  1.609996
H  1.353566  1.370356  1.083062
H  3.584880  0.987898  5.715217
H  3.771302  3.300263  0.039610
H  1.243771  5.966115  3.487818
H  1.192578  0.007533  3.738934
H  0.477514  4.878363  1.163584
H  0.074915  5.731615  3.313152
H  2.432840  0.663702  5.113446
H  5.001295  5.845187  4.175591
H  2.601972  0.864175  1.959233
H  5.704999  3.609520  5.121008
H  1.240079  4.595116  0.149255
H  1.225821  3.551668  4.382810
H  5.114932  3.925217  0.102135
H  1.494462  2.616418  3.973445
H  1.506851  1.380449  0.093585
H  3.524423  5.571378  4.132643
H  0.441406  2.135284  3.895748
H  0.454542  2.689673  5.595983
H  4.063720  1.006675  4.332353
H  3.076672  4.868284  5.269936
H  3.125116  1.500578  2.675177
H  1.027550  2.126542  1.608855
H  2.537377  3.008777  0.479129
H  4.261417  0.168069  1.801742
H  1.461564  5.236073  0.918618
H  2.890395  4.024630  4.742384
H  0.684075  2.809497  3.185710
H  3.519891  2.827477  5.026014
H  2.210178  4.611997  5.911138
H  4.113790  4.536239  5.670045
H  3.562807  5.306907  2.813382
H  3.111324  5.365222  1.860867
H  4.433519  1.850528  3.560374
H  0.083701  4.322905  3.162506
H  0.019356  3.464272  4.993791
H  1.274245  3.354099  1.965884
H  2.099465  2.060711  1.566543
H  0.289661  1.384592  0.878350
H  0.142407  0.917625  4.321677
H  3.418656  5.560706  5.928244
H  0.941348  0.199499  1.455917
H  3.711616  3.195470  1.945113
H  3.274301  3.542995  0.990830
H  1.589255  5.722969  5.495645
H  3.075859  0.469469  4.155073
H  2.454868  2.169302  5.691188
H  2.099345  0.124781  0.292474
H  3.070526  4.451584  2.304112
H  1.949028  4.228717  4.226621
H  2.012511  3.417729  5.247806
