 100
  
H  0.287027  0.001478  5.997975
H  3.499543  5.729281  1.571618
H  5.359586  1.362056  2.372785
H  4.245535  0.636955  5.074387
H  1.998466  1.817808  2.618799
H  5.366586  3.956556  2.571203
H  0.475663  2.848905  1.229259
H  5.615756  5.998598  0.778913
H  1.986195  0.977530  3.194329
H  1.282255  1.825642  1.382645
H  3.687283  2.290040  4.351131
H  1.625545  3.251645  2.261782
H  1.497512  4.140190  3.130374
H  1.188089  3.809312  0.711574
H  3.244764  0.100676  2.066617
H  0.975840  0.499949  4.364958
H  0.656339  2.473047  3.587358
H  3.140971  3.749308  5.560846
H  5.442141  5.212346  4.354779
H  1.270359  2.165159  5.837676
H  3.850251  1.375303  0.613685
H  1.290484  0.789296  1.437710
H  1.665279  0.146539  1.964148
H  2.930058  2.081188  2.712600
H  1.041526  5.906693  3.310916
H  3.217871  4.156702  2.661366
H  3.216132  1.163650  4.991269
H  5.908844  2.732184  4.974944
H  5.572626  2.435465  1.993102
H  0.293394  5.693385  4.095721
H  5.041524  3.507855  4.151927
H  2.246409  5.524679  3.440380
H  4.205005  0.362104  0.550184
H  4.532029  2.064055  1.815664
H  2.709721  2.216903  3.886395
H  3.179864  0.581187  5.994905
H  5.230997  0.768377  5.339472
H  1.208344  5.014303  3.670073
H  5.333864  4.122751  4.763690
H  1.335093  4.648477  1.996135
H  3.020908  4.977031  3.218461
H  0.467206  0.726887  0.964545
H  5.736104  0.007859  4.335167
H  4.066717  3.975915  4.567245
H  0.344452  2.407117  0.175742
H  5.354449  0.694256  0.410815
H  0.341893  2.263317  4.658334
H  2.593102  5.626202  4.608261
H  1.642875  2.908717  4.087521
H  4.826869  4.735431  0.378607
H  4.138893  0.612551  3.856069
H  3.572363  2.590590  3.274883
H  5.708217  5.226199  1.825081
H  5.344646  2.976437  2.984987
H  0.277306  0.815332  3.689810
H  5.317880  2.017666  4.382213
H  0.172670  2.324984  2.589638
H  5.921245  5.887343  3.026438
H  1.963126  0.091854  3.832336
H  1.524358  5.593453  0.960368
H  2.026137  1.031133  2.064221
H  5.767394  0.077589  2.194951
H  2.838805  2.891921  1.822376
H  5.998074  1.294969  5.854728
H  2.435109  0.346664  1.376721
H  5.909306  0.010104  0.774771
H  4.522952  3.183900  5.068368
H  4.021000  1.846130  2.818808
H  2.670412  0.078453  4.597249
H  3.705336  5.641260  3.340850
H  0.610238  1.446010  5.639850
H  5.910168  1.151558  4.708927
H  4.860148  3.126172  1.339386
H  3.711839  0.085608  3.049503
H  1.553367  2.822414  1.369626
H  2.456415  5.270697  1.324523
H  4.915639  0.793993  1.330546
H  4.350161  3.064510  3.543887
H  1.036604  1.354010  3.114551
H  2.441008  3.519443  2.827426
H  4.692823  5.095693  3.372044
H  0.743551  4.832601  0.236790
H  1.777400  1.760738  3.887367
H  5.534216  4.491825  3.464570
H  3.511488  5.862219  5.355323
H  3.127697  0.164925  0.202890
H  0.977722  3.250442  5.913442
H  3.355426  1.088177  3.143638
H  3.895151  5.801395  4.325958
H  1.726163  4.726308  0.533639
H  5.687714  5.520521  5.484536
H  5.986043  4.692395  5.152284
H  3.925794  1.029763  2.169222
H  4.152293  2.424255  0.841208
H  5.024186  1.108576  3.993083
H  2.486113  5.242189  2.400839
H  5.180096  5.650088  0.000927
H  0.000217  4.496271  5.688307
H  0.658764  5.611209  2.276002
H  4.237312  4.021209  5.697692
