 100
  
H  4.222709  4.969549  5.676245
H  3.185974  4.263607  3.107237
H  4.366829  1.616883  0.281124
H  0.051760  3.060249  4.299509
H  4.559774  1.145316  2.050978
H  2.741452  4.344580  4.423927
H  4.129370  0.034334  0.902312
H  3.925968  3.069030  3.046113
H  1.689594  1.276898  4.110109
H  0.940914  2.652903  0.410962
H  3.822981  4.850803  0.015706
H  1.113255  1.016166  1.187924
H  2.562578  3.911144  2.216536
H  2.826485  1.109196  3.401307
H  0.050376  0.696621  0.555727
H  1.125264  3.377987  1.271912
H  5.818378  0.846324  1.742739
H  0.400015  3.652429  5.332875
H  1.588406  4.972225  0.895402
H  3.711488  0.181728  3.508497
H  1.496348  5.941753  3.839579
H  3.267703  5.520397  1.588640
H  3.673866  1.071898  0.781950
H  0.740661  0.915827  4.533042
H  1.852462  5.913899  2.792531
H  5.340307  3.358215  1.281129
H  1.497162  3.621557  0.313791
H  5.346581  1.993657  5.658404
H  5.876736  1.770174  0.033422
H  5.884792  3.034346  0.146920
H  4.509189  5.607452  2.343553
H  0.105377  3.071925  1.244182
H  4.052715  2.140955  3.889696
H  1.856978  1.944058  3.326109
H  3.393430  5.503665  2.624203
H  5.193185  3.617904  2.336300
H  1.404732  4.727630  2.983061
H  2.949231  0.131815  5.586849
H  3.845433  4.481794  2.162315
H  0.908470  0.197288  5.442193
H  1.956460  4.003290  1.316470
H  1.444642  2.323152  1.538641
H  3.163568  2.849360  2.226332
H  4.246163  3.425860  0.594803
H  1.908863  3.075482  2.204484
H  4.657030  2.428183  1.832404
H  5.497667  3.048440  3.160905
H  1.091263  0.374860  3.745425
H  2.703274  2.900943  0.175928
H  4.658240  5.183222  0.522303
H  0.309644  5.313744  5.316142
H  4.944179  5.032988  4.579919
H  0.248544  2.252673  5.722021
H  3.728184  2.618682  0.159630
H  4.161724  4.190455  4.298535
H  2.296600  5.377856  4.658139
H  1.942717  4.780368  3.840774
H  2.213521  4.110718  5.739781
H  5.188148  5.894812  1.119402
H  3.434568  5.052208  3.855546
H  2.850790  2.570367  3.898684
H  3.165577  2.280192  5.358958
H  2.845474  0.140276  2.544180
H  5.752191  1.082392  4.080402
H  2.579966  4.881806  2.074519
H  5.047575  0.212589  1.498782
H  4.126425  1.679284  4.974101
H  5.174540  3.635502  4.847310
H  4.256992  4.046281  2.935801
H  3.197023  5.838536  0.435832
H  0.838989  5.815684  2.230059
H  3.742280  1.815609  2.945718
H  2.462144  1.956291  2.194578
H  4.699673  3.306172  3.854436
H  3.069638  4.999383  5.341419
H  1.105862  4.026281  3.769484
H  1.337948  5.352204  4.934233
H  2.763977  3.222951  1.291995
H  0.883551  1.628245  3.520597
H  3.622914  1.112920  4.147632
H  1.026830  2.061631  4.602174
H  0.340085  4.315260  2.820422
H  3.077616  4.584658  0.959754
H  2.485771  5.861265  3.622979
H  5.800294  2.620958  2.223134
H  2.808602  1.661497  4.450094
H  4.700201  4.308304  1.307710
H  2.971421  1.265725  5.779029
H  4.105306  3.278229  5.408442
H  0.670902  2.446494  2.784009
H  5.887618  3.994839  3.819394
H  2.019706  3.416519  4.361535
H  1.099186  2.877383  3.572350
H  2.361539  5.350500  5.976095
H  2.058681  5.851805  1.590235
H  5.174072  2.545378  4.607504
H  4.421136  5.803043  4.133633
H  0.396866  5.484603  3.607025
H  3.027532  1.981869  1.261850
H  4.113642  3.369882  1.902732
