 100
  
H  0.487574  4.936488  3.670302
H  3.284346  5.952685  3.899748
H  3.085237  3.375236  3.643006
H  0.031702  5.037620  1.816798
H  2.476003  5.038198  4.183464
H  3.368199  4.910466  0.999411
H  4.658140  5.951881  4.343800
H  1.928401  2.383776  2.323562
H  2.119594  3.230775  3.062702
H  5.766741  4.493615  5.437000
H  3.964243  2.356149  3.052549
H  1.097673  4.270548  1.931346
H  2.941000  2.118053  2.298449
H  5.435566  3.117672  4.853687
H  4.282609  1.231179  2.308177
H  5.037512  2.739056  3.003229
H  4.530669  0.108444  4.195074
H  2.384978  2.322572  0.720594
H  1.354950  0.193422  4.381778
H  5.825596  1.117325  2.012351
H  2.117590  1.570079  1.652614
H  3.244229  0.999767  0.574609
H  3.911177  2.241097  1.961292
H  2.926213  2.363403  4.373075
H  0.583863  2.958868  4.775482
H  4.984721  1.051427  0.094543
H  2.613470  4.759095  5.871408
H  0.202531  1.281591  3.320384
H  3.481151  0.107179  4.950481
H  2.768726  2.397002  3.303831
H  2.844238  1.180720  4.825191
H  0.084368  0.016537  1.866868
H  0.133358  3.905739  1.556109
H  4.121415  1.397372  3.877410
H  2.569294  0.202468  5.947365
H  4.308630  0.838357  5.132597
H  1.491721  3.832914  0.388004
H  3.729148  0.538502  2.695256
H  4.639232  3.770291  2.168868
H  3.259797  4.473981  0.005483
H  2.532378  5.859145  1.161095
H  0.084585  1.051151  2.077293
H  4.981921  4.856532  1.337364
H  4.794288  2.664986  3.891715
H  5.240250  1.128170  4.286882
H  5.229841  4.686881  2.378205
H  1.496035  5.023487  3.961831
H  3.758317  5.144593  5.049136
H  2.164966  5.189587  5.118001
H  0.198347  2.274746  2.019282
H  5.033292  1.842493  2.448115
H  5.470583  3.711402  3.195422
H  0.976203  3.898933  3.977879
H  2.199106  0.474983  0.430280
H  1.566750  2.522925  4.781657
H  5.061521  0.981405  1.179205
H  1.032249  1.623778  1.849555
H  5.169269  5.269111  3.639778
H  0.428679  3.140114  0.871868
H  2.338341  0.012618  4.904143
H  0.800998  4.103266  5.589261
H  3.379837  2.619203  1.101417
H  1.359883  5.314024  0.176218
H  1.437471  4.467552  2.819711
H  2.580545  5.297507  0.143849
H  4.001738  0.332040  1.703012
H  3.749445  4.042191  5.098582
H  1.349341  5.505379  1.293238
H  5.169039  0.737318  3.166951
H  2.370830  0.551562  2.459269
H  2.264798  4.333484  2.085408
H  5.961784  2.293253  3.068097
H  4.981998  5.941760  1.771941
H  5.025786  4.990317  4.761067
H  3.947615  4.266087  3.127040
H  1.276433  2.602166  3.045928
H  2.357692  5.277355  2.411641
H  3.477382  0.049359  3.826545
H  1.503393  3.692509  4.975636
H  3.161485  1.279891  3.314597
H  0.643337  4.399481  0.693011
H  1.858061  4.637214  1.128997
H  0.073464  4.635767  2.792728
H  3.045774  0.016749  1.430939
H  5.861723  2.517373  4.156558
H  5.474797  2.130322  5.903794
H  3.690123  3.405144  1.612563
H  4.295846  0.049181  5.937139
H  4.223591  4.783889  4.117304
H  2.969419  4.136586  2.770819
H  0.357026  2.205787  3.984696
H  1.879303  2.015302  3.770746
H  3.791867  3.829634  4.048869
H  0.159549  3.254830  5.753018
H  1.329656  3.386230  1.366119
H  2.199021  1.689440  5.761127
H  2.188955  5.835965  3.528478
H  1.954519  3.220559  4.082918
H  3.136432  1.524920  1.404819
H  4.489406  5.773819  0.792662
