 120
  
H  1.435630  3.256303  2.764813
H  3.296369  3.707380  3.180864
H  0.626309  0.577072  3.939851
H  2.299935  5.976761  0.711628
H  0.608319  2.129654  5.186138
H  3.445099  0.343728  2.975363
H  1.005662  2.433693  1.310629
H  0.484072  2.479537  3.074633
H  0.728900  5.048470  2.511649
H  3.525342  2.388771  3.023503
H  5.767240  1.285878  2.020118
H  1.672047  4.390110  4.722156
H  4.300809  3.184298  3.346912
H  0.352358  1.623560  1.493778
H  2.139385  1.178854  4.173624
H  2.056156  4.591440  5.821577
H  1.190280  0.807677  0.104180
H  0.501771  1.747543  4.027217
H  5.691269  1.834082  4.642858
H  4.772262  1.012986  1.890879
H  5.189390  2.916799  2.148843
H  0.491761  5.035818  4.553003
H  4.639052  5.069989  3.887398
H  4.438957  0.430550  0.345303
H  1.949102  2.900948  1.563670
H  5.941137  2.510800  0.821912
H  3.081354  0.104570  1.036220
H  2.376059  3.998708  2.866613
H  0.906867  0.296227  2.153553
H  2.857683  5.254644  5.850448
H  3.972544  5.197004  5.125391
H  4.975114  1.872765  3.775564
H  1.303151  1.442612  0.989091
H  4.575787  1.864555  0.186466
H  4.140246  0.328658  4.035106
H  1.992557  0.473362  1.040815
H  1.865702  1.122774  2.528590
H  2.176834  0.188565  3.651437
H  4.026555  2.221289  1.246164
H  2.521643  5.143335  2.776973
H  4.718042  5.903389  1.415200
H  3.783180  1.414621  3.549730
H  4.886894  1.199379  2.948175
H  0.126214  5.932340  2.979540
H  4.258327  4.221333  3.148579
H  4.534191  2.363123  2.788931
H  3.198807  1.456830  0.542348
H  5.991778  1.228252  3.286138
H  1.934439  5.082646  3.765835
H  1.228456  5.467887  0.766536
H  0.431825  4.911159  3.460553
H  2.600533  3.067994  0.451581
H  5.610742  1.113391  0.791163
H  4.595009  4.357267  5.512188
H  2.787988  2.232092  3.958965
H  5.308675  0.893076  3.934292
H  4.573505  5.982259  5.305514
H  3.250271  2.987208  1.330990
H  3.559471  3.180092  0.039383
H  1.833678  5.694210  2.354353
H  0.040461  3.309522  4.736200
H  4.752992  1.255321  5.163688
H  5.458251  0.689150  5.748458
H  2.701498  5.181360  1.674375
H  5.221500  2.004547  1.588798
H  2.830440  1.404873  3.056277
H  5.610137  2.043161  2.715058
H  1.473398  4.186705  3.312760
H  1.403308  1.811219  4.377924
H  4.532095  0.236742  5.297052
H  5.087240  4.072913  4.453659
H  2.097686  1.187704  0.249128
H  4.780892  2.943113  1.000613
H  0.506836  2.840610  2.089885
H  3.757362  1.019221  5.836882
H  4.925606  3.134897  4.118784
H  5.558989  3.347811  3.091019
H  3.073665  1.505774  1.620760
H  4.013420  1.509854  2.336360
H  1.862116  2.817874  3.687187
H  2.673011  4.066623  0.855294
H  5.301279  5.898397  3.632266
H  0.275599  1.107387  0.591928
H  3.347059  3.273512  4.127189
H  5.364072  2.428485  5.893293
H  5.884982  4.002204  3.764810
H  2.346998  3.041975  2.497622
H  0.909926  2.851196  4.171722
H  1.531644  0.244924  4.527293
H  1.516769  3.514727  5.339726
H  1.013850  3.533251  1.409102
H  3.029614  4.451741  3.821061
H  0.688378  2.866547  0.389321
H  4.050091  2.918053  4.999451
H  2.111032  4.994062  0.006077
H  4.130456  0.352147  1.442271
H  2.424673  3.656393  3.960956
H  5.944559  2.697773  3.878150
H  3.138227  4.533582  4.874536
H  1.471413  2.265202  5.902047
H  4.120493  2.388884  4.034745
H  3.206812  4.984134  0.185302
H  5.425861  5.062962  2.857279
H  3.711586  5.245160  4.237084
H  3.437326  5.960677  5.388820
H  3.872424  5.290225  2.157690
H  4.527720  3.977449  2.126862
H  4.055450  4.192630  0.864987
H  3.920821  4.123791  4.090481
H  0.721352  4.000975  2.711958
H  3.865390  3.135410  2.356280
H  1.190262  5.702610  3.345707
H  3.053353  0.746565  4.862454
H  0.635906  1.146940  4.836341
H  3.840726  5.384187  1.041818
H  3.242012  4.213050  1.939973
H  1.957778  3.973593  1.770204
H  4.954167  4.860132  1.845844
H  1.247843  2.300882  2.380800
H  2.305213  5.273447  4.934971
