 100
  
H  4.327600  4.852239  5.550165
H  4.708647  5.434733  1.440973
H  1.644436  3.997250  1.760831
H  1.927726  2.529204  4.385780
H  4.378988  3.014851  4.761168
H  2.552761  1.905776  4.434846
H  4.764617  5.271232  1.763442
H  3.349151  0.178023  2.969694
H  1.963227  3.748425  1.988863
H  2.291026  5.760792  3.638411
H  1.113630  0.012242  5.005392
H  0.203973  1.796519  1.209090
H  5.302129  4.075832  4.359178
H  3.657043  2.639848  4.073232
H  4.823650  2.868598  4.195542
H  4.313045  1.805639  4.339625
H  5.043601  4.239600  4.712998
H  3.218363  2.104511  4.192214
H  4.620348  4.057634  0.729974
H  2.381637  4.420208  5.247181
H  3.221801  0.840994  0.403452
H  5.101236  0.375990  3.362976
H  0.604059  4.279214  2.569451
H  5.088758  5.183152  3.447350
H  1.154146  4.462427  4.241546
H  1.880195  5.250412  1.401115
H  2.894173  4.059882  4.331388
H  4.182260  0.463496  3.286785
H  1.415573  1.770385  3.268512
H  3.701480  4.687038  3.873603
H  5.403042  1.651032  2.252366
H  0.622774  1.205189  3.816684
H  2.190600  5.951549  5.805649
H  4.463765  4.118739  2.717573
H  4.974781  0.853224  5.508150
H  3.179225  2.238035  2.024029
H  4.556816  5.105732  5.762869
H  4.796209  3.715252  4.266048
H  1.452291  1.444080  1.749983
H  4.997680  0.394283  1.672505
H  2.737309  3.898519  3.482729
H  5.381636  1.533786  5.068756
H  3.623783  0.197204  5.584964
H  1.374022  0.438461  4.377425
H  0.747598  0.289770  5.694314
H  1.096570  5.461806  3.078438
H  5.925662  2.781841  0.568792
H  5.880157  0.243983  4.471023
H  3.292260  5.002025  1.954956
H  4.018426  0.429409  2.712581
H  4.457492  2.726417  1.894339
H  0.135976  5.141468  2.612513
H  5.543820  4.614654  1.169112
H  4.864871  0.055701  3.922565
H  1.650796  5.472951  5.674508
H  0.816685  5.209238  3.115206
H  4.201224  2.408506  3.904441
H  3.300207  0.981137  0.542742
H  0.940373  5.978537  1.171286
H  4.786991  0.578779  3.118622
H  0.122636  2.151760  5.842220
H  3.365529  0.914951  1.394471
H  3.407625  4.391046  1.179170
H  0.769748  1.631602  5.176066
H  0.759688  4.293653  1.045462
H  2.147109  1.568545  2.561651
H  4.445845  0.729802  4.185651
H  4.740899  4.584816  1.964869
H  2.530961  2.143592  3.024220
H  5.369410  4.922140  1.283731
H  1.119091  3.892442  3.398552
H  5.053252  1.027123  2.065660
H  0.387909  5.893147  3.014909
H  5.725507  1.552536  0.998428
H  0.839297  2.636786  0.111478
H  3.619147  4.941701  0.142705
H  5.696908  0.476690  1.741184
H  4.219977  5.644393  3.354357
H  4.560829  4.078124  2.767042
H  5.563141  3.858516  3.736304
H  3.912407  4.786400  0.190782
H  1.991771  0.374092  3.958421
H  4.195763  5.064319  4.731459
H  0.152660  3.194044  2.196654
H  4.583459  0.103100  5.915236
H  0.537557  0.073717  1.081059
H  5.845265  4.029458  1.390614
H  4.209408  1.343333  3.130868
H  3.541713  5.788758  0.473024
H  5.069230  0.940724  1.050717
H  4.048783  1.939800  3.856834
H  1.001487  1.729913  2.206728
H  4.848560  3.929482  4.066397
H  3.524589  3.372051  4.652351
H  3.870110  5.467729  5.874808
H  5.432069  3.163066  5.138654
H  5.580076  5.955446  5.023528
H  4.925294  0.655403  1.956817
H  3.022006  3.172663  3.285805
H  0.058867  0.869053  2.922837
