 100
  
H  4.233508  5.975353  5.833304
H  3.409150  4.010295  1.606864
H  0.981742  5.603635  1.320764
H  3.994873  5.640888  3.526859
H  0.325305  3.193755  1.306782
H  0.832757  0.906301  2.175659
H  5.556960  4.998836  3.892487
H  0.317298  4.635097  3.605842
H  0.102427  5.483946  2.085843
H  5.573957  2.149046  5.779725
H  5.799406  5.477320  5.900732
H  2.901851  2.376386  2.882035
H  3.836241  3.446468  5.933973
H  5.954087  2.994736  2.349378
H  0.448037  0.103179  0.300097
H  3.041980  1.610246  5.837640
H  5.896422  5.740164  3.479263
H  5.346730  0.189483  2.072804
H  5.884717  0.008967  4.580263
H  4.536097  4.121370  1.261282
H  4.925361  2.857989  2.908654
H  4.980195  5.571972  0.039288
H  5.992360  2.966688  3.285168
H  1.254151  5.799256  0.984399
H  1.649325  1.310221  0.537021
H  3.970683  4.294935  3.580912
H  4.849781  2.175245  4.428772
H  2.880101  5.519247  2.663630
H  5.930028  3.581829  2.988557
H  4.589165  5.827038  2.905694
H  4.552139  3.500683  0.167096
H  2.924991  4.271139  1.301040
H  4.692492  2.757390  0.862901
H  1.216458  5.872547  5.345219
H  5.781687  4.440242  4.074996
H  1.229789  0.206714  2.157099
H  1.565657  3.091503  5.524825
H  0.910350  4.351561  1.873716
H  0.972019  1.795907  4.064779
H  2.118681  4.547364  5.867576
H  4.779268  4.982261  1.656372
H  0.533166  5.486912  5.474569
H  2.283296  1.426172  2.068635
H  2.118548  0.038010  4.201397
H  5.527722  3.932319  1.255302
H  1.170840  4.594912  4.274354
H  0.317817  3.296215  1.527094
H  3.005281  1.697367  3.779996
H  3.249509  3.062777  5.157920
H  4.588948  1.525854  5.148287
H  2.083893  0.219364  3.616155
H  0.896764  3.810438  5.770573
H  3.844418  5.497002  0.810735
H  2.932371  5.368014  1.836322
H  0.915652  1.694685  2.490824
H  4.483959  0.451447  2.648218
H  0.053869  4.277798  1.799751
H  1.128685  1.137182  0.254359
H  1.594107  0.142828  3.977421
H  2.008812  3.364434  3.989051
H  5.509242  4.449249  1.779041
H  5.325422  4.377208  2.659349
H  5.389785  5.646300  2.824971
H  5.501416  3.905652  3.954025
H  1.280308  5.323055  5.658404
H  4.164853  2.464425  5.664362
H  5.096341  4.117440  4.531795
H  4.905322  4.978074  3.115123
H  5.587275  3.758593  1.004761
H  3.651669  0.211457  2.686379
H  5.569813  2.967240  2.518501
H  1.212306  1.316193  4.039530
H  2.022785  3.905949  3.382649
H  2.223759  5.988020  3.051254
H  3.311390  1.929945  4.945213
H  3.531951  4.809135  3.824547
H  4.735386  3.093290  3.899463
H  0.068906  1.315208  3.567848
H  2.878170  1.372728  1.881330
H  1.021142  4.612921  5.408510
H  5.888120  2.962193  3.773304
H  4.090110  0.239565  5.584505
H  5.607613  0.586059  3.902232
H  2.111786  3.878784  1.849734
H  1.433290  4.600895  3.064752
H  1.102791  1.513485  0.489480
H  3.635364  1.397010  5.119679
H  1.434485  0.735882  5.653997
H  4.387214  4.468277  4.070085
H  2.858820  1.117698  1.319142
H  3.667101  5.221877  4.338160
H  5.856020  5.667415  2.475934
H  4.674520  1.744651  3.058174
H  1.355554  5.422281  1.412132
H  2.248451  1.232848  1.366593
H  2.591531  0.040630  4.892755
H  2.085243  4.757861  3.104373
H  0.925552  5.339755  2.120484
H  1.140913  3.577759  4.467697
H  4.561925  0.328266  2.558002
