 100
  
H  3.476027  3.499967  0.050300
H  1.550094  0.460869  5.626938
H  2.279112  3.954140  3.325652
H  2.629094  3.948798  5.235659
H  5.412223  2.712782  5.813463
H  0.312649  4.431519  4.958301
H  5.948308  2.239702  5.116130
H  2.350393  1.516551  2.111770
H  0.881298  1.987227  4.974938
H  2.953205  0.199240  2.575314
H  1.660319  0.714841  3.610533
H  5.464972  1.981791  2.928695
H  0.806421  4.631661  0.178764
H  4.255267  0.198868  3.175074
H  5.566631  5.852949  4.663523
H  4.604156  5.686679  3.472397
H  3.945929  0.483425  3.456839
H  2.881191  3.186770  5.147776
H  1.679429  2.272900  5.644652
H  2.083036  5.307999  5.794843
H  3.360291  0.616056  1.537237
H  0.789780  4.926027  5.146239
H  0.575938  2.421610  0.656291
H  5.661031  1.133799  2.510218
H  4.600385  3.823835  2.565069
H  0.786955  0.685306  4.953726
H  1.700302  5.206832  0.823487
H  3.387383  1.402815  0.769530
H  1.757982  1.843228  4.164293
H  1.568051  0.416030  2.524370
H  1.340905  4.113983  3.401050
H  0.168888  3.651883  2.948226
H  0.247295  0.991312  5.702279
H  4.241210  3.910595  1.768499
H  4.380781  2.887792  4.228566
H  3.082146  0.805120  2.917437
H  1.260025  3.600098  4.633159
H  0.444122  0.230551  0.229757
H  2.346038  1.489961  0.537894
H  2.522650  4.412455  1.308375
H  3.469939  5.747007  2.304888
H  3.837865  4.460464  5.243572
H  5.485835  2.427698  4.164503
H  3.075806  3.347225  0.469054
H  3.143366  0.576519  2.527687
H  0.327833  2.892410  3.029942
H  2.287441  1.691128  2.161499
H  2.339698  2.297001  2.749199
H  4.112210  3.293434  5.374608
H  5.321026  4.301548  1.746765
H  2.894615  5.778842  4.465857
H  5.478985  5.204003  0.122597
H  4.206579  2.264104  5.554289
H  5.049605  5.979324  3.708872
H  0.895928  1.229299  4.962809
H  3.304664  0.931006  0.864491
H  3.925229  0.487251  2.752318
H  3.664059  0.768293  4.511965
H  0.508159  1.262560  5.752222
H  1.500119  1.436355  4.599090
H  4.772315  4.283374  3.578726
H  5.753453  0.893406  4.808153
H  5.925101  3.152762  5.543709
H  5.328459  1.899892  5.607947
H  3.077767  5.892866  5.337529
H  4.959883  0.016180  4.542086
H  0.317858  0.027163  1.238580
H  0.515392  4.244568  2.397796
H  5.952379  2.455672  1.327793
H  2.302397  5.183970  1.796489
H  0.083441  3.008734  2.634069
H  5.438387  1.636050  5.928912
H  0.519553  0.978463  0.981055
H  1.327480  3.465159  1.952325
H  3.946701  4.234390  1.675089
H  0.419346  2.095548  4.527864
H  0.213675  3.580244  2.180632
H  2.266092  0.307201  1.349793
H  5.005079  4.444696  4.165632
H  5.429662  3.822759  3.569373
H  5.035934  3.401532  2.714015
H  0.459902  5.226083  4.761489
H  4.924711  1.082403  4.578168
H  3.121523  2.520277  2.825773
H  4.579613  1.648889  3.628851
H  5.431340  4.112304  4.776361
H  5.929351  5.085361  2.732387
H  1.464889  1.045693  5.182498
H  0.520393  2.922370  4.859098
H  5.339099  2.664651  5.875632
H  5.111109  5.155016  3.225673
H  3.534676  5.401122  4.556419
H  5.858857  0.299412  2.520092
H  4.334006  0.335317  2.360315
H  4.334468  4.375646  1.608971
H  1.628191  1.596325  2.808173
H  4.349446  4.018636  2.670978
H  1.571988  0.618953  0.101397
H  2.715543  1.056046  1.357808
H  4.466827  4.969869  0.220198
