 120
  
H  1.827323  3.647996  3.156506
H  3.732905  4.143916  3.617400
H  5.971852  5.922615  3.285394
H  0.467222  4.144048  4.878915
H  1.400137  2.921472  5.977955
H  1.937243  4.835871  1.467507
H  1.543209  2.971240  1.848176
H  0.769660  2.765125  3.360221
H  1.724650  0.044220  3.507399
H  4.769779  3.633208  4.267940
H  1.334151  2.852789  3.587029
H  0.586886  3.304948  3.636994
H  3.978925  2.862414  3.025028
H  4.505905  5.777107  5.647325
H  1.992448  1.031918  4.026688
H  2.016887  4.552170  5.782308
H  0.622969  0.240366  5.536869
H  4.093907  5.339679  1.619353
H  5.664738  1.807551  4.616327
H  0.018776  2.259500  3.137393
H  4.533895  2.261303  1.493348
H  5.200838  3.744894  3.262079
H  5.576551  0.007488  4.824897
H  3.750611  5.742204  5.656957
H  1.663562  2.615408  1.278130
H  4.804611  1.374274  5.685385
H  3.136673  0.159889  1.091539
H  2.183235  3.805884  2.673789
H  5.337771  4.727132  0.584457
H  3.622394  0.019355  0.615159
H  3.434500  4.658960  4.587347
H  3.599225  0.496876  2.399676
H  5.528160  5.667621  5.214100
H  4.522591  1.811358  0.133270
H  3.760277  5.948689  3.655137
H  1.012320  5.493124  0.060578
H  5.211442  4.468514  5.874331
H  1.841144  5.852876  3.315748
H  3.233351  1.428086  0.452961
H  3.699593  0.321284  3.954922
H  4.593680  5.779027  1.290838
H  5.579908  3.211350  5.346459
H  3.430590  5.743075  1.491871
H  0.098555  5.904681  2.951881
H  5.449049  5.412054  4.339300
H  4.691802  2.520735  2.946543
H  2.519762  0.777784  5.863302
H  4.225754  5.462228  1.520114
H  1.343719  4.491926  3.175115
H  4.615877  2.855308  4.153957
H  0.405322  4.884656  3.434050
H  1.508110  1.975570  5.359157
H  4.098705  5.601354  5.279126
H  4.501007  4.263265  5.418186
H  2.108465  1.552569  3.279442
H  5.084239  0.668640  3.709857
H  4.322933  5.731687  5.054943
H  0.678252  0.415189  4.758971
H  3.433630  3.054251  5.913542
H  1.691723  5.552255  2.212397
H  0.406277  3.675338  5.102017
H  2.804753  5.307082  3.215449
H  5.500101  0.731000  5.790308
H  1.354031  3.833894  0.326909
H  3.257021  0.040068  5.624319
H  2.303650  0.878082  2.529486
H  5.559388  1.992411  2.664308
H  1.240223  3.953529  3.079584
H  0.609465  1.017376  3.584081
H  4.335529  0.040175  5.100485
H  2.823670  1.809343  2.190089
H  2.694722  1.784740  0.846164
H  3.464136  1.626358  5.683857
H  0.154028  2.487802  1.737077
H  2.866566  0.128425  4.946086
H  3.458428  1.667719  2.651607
H  5.705830  3.494651  3.237860
H  4.636847  3.068956  3.183942
H  2.804574  0.301009  1.127514
H  4.260428  5.216186  0.085500
H  3.464638  4.858251  1.646922
H  2.240168  2.837286  0.571156
H  4.800095  5.631883  5.116424
H  3.720366  3.646819  4.500497
H  3.897324  0.961737  4.426546
H  0.066435  4.183657  3.946263
H  2.326604  3.021580  2.477227
H  2.219878  4.161148  5.481674
H  1.844518  0.557797  4.840166
H  1.086032  3.083990  4.908989
H  0.177171  2.696572  0.572424
H  2.946740  4.368868  3.738188
H  5.571176  1.749345  5.272119
H  3.232275  2.100237  4.181635
H  0.525653  3.408683  4.420697
H  4.624844  0.846534  1.936659
H  2.686545  3.918266  4.222828
H  0.430021  3.183235  4.363611
H  2.937533  4.332889  4.673843
H  1.668095  2.461883  0.098728
H  0.161024  4.429416  0.075276
H  2.510559  4.287881  5.489050
H  5.317068  4.954168  2.748485
H  3.882996  5.416570  4.408493
H  2.409233  4.932585  4.360728
H  3.510910  4.928712  1.796176
H  4.084632  3.534360  1.683773
H  4.643938  4.781118  1.453475
H  5.325615  5.528584  5.495274
H  0.305582  3.585204  2.296187
H  2.573164  1.843185  1.064054
H  5.912007  4.424355  2.067452
H  4.206741  1.899954  0.015842
H  4.918159  5.429193  3.118593
H  2.858995  4.402456  0.060087
H  4.044706  5.015743  2.742666
H  3.367223  5.383038  3.179648
H  2.847277  2.753241  5.738954
H  1.029595  2.082633  2.162552
H  1.060786  4.029020  3.690544
