 100
  
H  0.761842  0.476292  0.472790
H  2.700552  4.930290  0.772627
H  5.713044  1.715514  2.726242
H  4.410972  0.802392  5.239824
H  1.317273  1.136616  1.937607
H  3.951828  2.541798  1.156445
H  5.496032  1.869275  0.249629
H  5.321597  5.704439  0.484754
H  1.792341  0.783676  3.000476
H  1.140899  1.684286  1.241288
H  3.933598  2.536354  4.597446
H  0.997582  2.623682  1.633819
H  0.320067  2.962746  1.952930
H  0.358420  2.979643  5.881904
H  3.037756  5.893668  1.859609
H  1.715350  1.239459  5.104468
H  1.765516  3.582224  4.696535
H  2.982420  3.590756  5.402295
H  4.506677  4.276881  3.419315
H  0.611559  1.506359  5.178876
H  3.026384  0.551436  5.789819
H  1.148541  0.647353  1.295767
H  0.496085  4.977345  0.794954
H  3.478678  2.629808  3.261220
H  5.762939  4.628106  2.032329
H  2.128126  3.066957  1.571621
H  1.997527  5.945045  3.772664
H  5.867057  2.690397  4.933157
H  5.807396  2.670234  2.227872
H  5.091588  4.491579  2.893915
H  4.786900  3.253231  3.897303
H  0.387281  3.665552  1.581253
H  5.498160  1.655258  1.843338
H  5.157343  2.689369  2.440978
H  3.244177  2.751359  4.420851
H  1.386470  4.787794  4.201512
H  5.463373  1.000754  5.571848
H  5.952433  3.758391  2.414162
H  4.828526  3.617413  4.258351
H  0.033679  3.347064  0.694721
H  1.944215  3.900338  2.141768
H  0.371570  0.631251  0.868909
H  4.907614  5.179369  3.506677
H  3.943869  3.853068  4.444397
H  5.628931  1.691596  5.460221
H  4.869567  0.209375  5.925933
H  0.630503  2.551926  4.946944
H  0.354547  3.387648  2.369706
H  2.717826  3.983668  5.162473
H  4.801597  4.710159  0.353335
H  3.710306  0.183964  3.427482
H  4.206739  3.224966  3.909259
H  4.937266  4.455247  1.054129
H  5.622621  3.254412  3.262961
H  0.794320  1.332346  4.206824
H  4.817593  1.517378  3.881925
H  0.085046  2.237359  2.502014
H  0.094817  0.060915  3.200010
H  0.278495  4.407223  2.147705
H  0.253713  4.322808  5.689722
H  1.651311  0.656307  1.689395
H  0.039455  0.349650  2.467011
H  2.118920  2.172036  1.102491
H  5.726261  1.023156  5.582915
H  0.883040  4.794594  5.824652
H  0.071155  0.171953  0.936619
H  4.751525  3.412472  5.296941
H  4.557988  2.383117  3.355796
H  1.307440  4.715482  3.234277
H  3.733225  5.669149  3.368739
H  0.043448  0.879220  5.073060
H  5.193275  0.434664  3.992034
H  4.180419  2.446443  0.659657
H  3.628279  0.002048  2.965943
H  1.152525  2.421572  0.968784
H  1.297715  4.111998  0.165824
H  5.654657  1.533011  2.069563
H  4.542730  3.257078  3.736455
H  1.102223  1.419629  3.180169
H  1.679823  2.758257  2.066241
H  2.929438  3.332308  1.608659
H  5.948168  4.037218  5.441407
H  1.714934  1.698272  3.824901
H  4.502189  3.459798  2.432543
H  1.851414  4.202145  3.695249
H  1.550041  4.587268  4.625233
H  0.429309  2.702029  5.365030
H  3.207591  0.940342  2.995803
H  3.706963  5.613207  4.137770
H  1.091394  4.091539  5.898870
H  4.933626  4.766433  4.730448
H  5.330033  4.036386  4.496275
H  3.795767  0.899736  2.039195
H  3.898288  2.170250  0.587202
H  4.841753  0.926142  3.810650
H  1.769297  4.525372  1.684022
H  4.752406  5.222397  5.573236
H  5.629298  4.125352  5.317388
H  5.351955  4.304400  0.969193
H  4.052581  3.836478  5.512961
