 100
  
H  4.100841  4.216737  1.095760
H  0.789574  3.784861  4.314983
H  5.905718  0.036146  3.718815
H  5.233936  5.242444  3.795993
H  0.674525  2.086510  1.162896
H  2.947495  2.804129  1.686944
H  2.898183  2.164198  3.322521
H  0.305472  0.855416  1.631743
H  2.432288  2.485950  2.276895
H  0.373495  2.514115  1.466298
H  5.736937  0.368469  5.007084
H  0.915392  2.452776  1.767863
H  2.793485  2.234966  5.318277
H  3.104665  4.383842  3.732528
H  0.388857  0.493004  5.691540
H  1.811768  0.784130  5.080676
H  3.253926  5.120610  4.821578
H  3.794718  0.046409  1.313943
H  1.309262  0.414081  5.182376
H  0.683248  1.396504  1.820543
H  5.810155  3.332871  5.104304
H  4.030125  1.013768  0.756378
H  2.808232  0.375422  0.357186
H  2.819084  2.064074  5.879299
H  4.326105  1.315062  4.458421
H  5.916161  1.342615  2.134208
H  2.275094  0.069774  3.898848
H  5.947516  3.957188  5.326110
H  5.449053  4.227985  0.049432
H  0.723007  3.947902  4.853053
H  2.319566  2.771930  3.879044
H  4.316650  3.921766  5.078237
H  2.982250  2.587043  5.421456
H  0.584372  3.889171  2.209711
H  0.605709  0.068422  1.699047
H  3.688760  1.710214  1.416298
H  0.254120  2.566034  5.184612
H  3.536077  3.913961  4.924735
H  3.363404  4.197568  4.818036
H  5.893916  0.553404  4.697566
H  0.426536  4.604717  3.952748
H  2.547378  5.322516  0.248061
H  0.424017  4.910043  1.454076
H  4.088177  4.963417  4.979242
H  0.414544  0.320320  3.640965
H  4.766456  3.008439  2.639697
H  5.961366  2.782316  5.966523
H  1.078310  0.340075  4.699037
H  0.320261  5.559260  0.933744
H  4.759222  2.065500  0.165446
H  0.293649  3.431260  3.828920
H  4.175676  4.733403  2.467752
H  3.653797  0.990476  4.789630
H  2.847262  3.074905  5.800539
H  0.489190  0.285412  1.911290
H  0.176835  2.059831  1.058392
H  4.064373  4.881859  2.029302
H  3.921342  3.024149  3.474001
H  3.832376  3.145585  3.274066
H  4.985503  4.496486  4.265755
H  5.961637  4.934728  0.562023
H  1.469217  0.658665  4.411257
H  3.388276  3.447078  1.001187
H  1.068165  4.556611  4.423367
H  5.629754  1.941786  3.437017
H  0.723441  5.845230  5.225483
H  2.390530  0.101277  5.966893
H  5.802335  4.453838  0.664477
H  5.592023  3.553196  5.938729
H  3.676876  4.292686  4.903667
H  0.336899  1.285962  5.483095
H  2.191765  2.313064  4.653172
H  1.745468  1.266354  5.660359
H  5.669439  0.716909  5.099994
H  1.703626  3.322864  1.971425
H  5.085477  2.580189  0.933847
H  5.196846  2.230995  1.174286
H  5.249022  0.665372  2.280739
H  3.611580  5.906141  0.522592
H  1.993270  2.788042  5.235553
H  3.890113  0.889601  5.719443
H  3.878613  1.700079  4.134972
H  0.672343  5.070146  4.997631
H  5.685271  5.844714  1.253310
H  5.498406  0.183624  4.982347
H  0.401690  4.364882  3.529249
H  0.103613  0.736007  3.518638
H  1.589772  5.422492  0.046056
H  4.695581  4.024668  5.548943
H  0.221198  1.383709  3.861792
H  4.828708  5.196421  4.543217
H  5.234840  2.105054  0.724872
H  2.750982  5.345579  4.653965
H  2.810457  3.449540  1.491863
H  5.189195  4.990004  4.445691
H  2.813888  4.693928  0.555194
H  0.223084  0.687490  5.055448
H  4.792538  4.484138  2.991952
H  1.297976  4.810771  3.424793
H  0.567252  0.754578  5.868121
