 100
  
H  2.431987  0.348153  4.562359
H  3.401667  5.476937  4.658950
H  4.967432  4.236282  5.636964
H  1.616237  3.054510  0.146996
H  4.172300  4.943522  2.701681
H  4.775143  2.204189  3.961383
H  1.834509  1.252027  0.338063
H  4.856406  0.043959  3.257315
H  3.786198  4.327237  3.096607
H  4.286676  4.095779  3.228601
H  4.010729  4.810093  3.218015
H  4.433649  5.769650  3.037544
H  3.592023  4.592620  4.929545
H  0.379973  3.924686  1.876022
H  0.613058  5.861708  3.145211
H  4.904864  4.940988  0.391189
H  5.645153  5.102813  0.431117
H  0.520094  2.713512  1.573973
H  0.159174  0.202568  3.483824
H  3.439896  1.577300  0.518148
H  2.429570  5.800316  0.145191
H  4.251590  3.829279  2.659594
H  1.175500  1.178628  2.238727
H  2.036974  5.519701  5.137582
H  1.433944  2.150152  2.680553
H  4.993880  3.639574  4.250745
H  5.638747  2.840567  3.925230
H  2.814666  2.005729  3.983224
H  3.920469  5.906666  1.444963
H  2.268873  1.016848  3.772022
H  5.961336  1.800731  4.047491
H  1.007002  5.232123  4.707304
H  1.344442  3.587219  3.794924
H  4.959453  1.834607  4.467962
H  4.093954  4.894083  2.750784
H  1.178657  4.927684  4.272242
H  1.018152  0.711021  0.752477
H  4.743889  5.278072  5.998698
H  2.672463  2.152455  0.399648
H  3.244121  2.253554  5.767796
H  3.641928  0.646475  4.907327
H  2.144964  5.709900  1.835610
H  5.806740  1.552927  1.901195
H  5.733773  2.121735  2.900708
H  4.541188  1.816291  5.463386
H  5.501278  1.872278  0.398106
H  1.128181  4.470504  1.723616
H  3.542783  5.004169  4.843844
H  1.591805  3.506921  0.846897
H  5.786123  5.870359  5.084665
H  4.178967  1.517002  3.304010
H  4.896544  4.176229  2.765207
H  2.581958  1.192136  0.981095
H  5.925231  4.453653  1.105863
H  4.575278  1.393501  5.249064
H  1.636450  4.746361  4.962372
H  4.873209  5.432952  4.712469
H  5.856226  5.006205  4.927366
H  3.899162  0.150385  0.943356
H  0.674060  2.320902  0.930824
H  4.112526  0.833420  2.608763
H  3.893685  1.432420  1.727999
H  4.304014  4.481620  2.382090
H  4.634262  5.356387  5.090787
H  2.083142  4.084918  0.288993
H  2.442996  2.135282  3.500392
H  5.773266  3.444993  2.759245
H  0.951349  0.242769  4.390646
H  3.743031  3.106810  1.756891
H  3.527243  5.431879  5.870395
H  3.082109  5.586176  2.312380
H  2.795033  5.350108  2.381041
H  5.300192  2.742616  0.684787
H  4.506164  0.329796  3.745950
H  3.086650  1.021742  0.069681
H  2.638877  1.229906  1.111417
H  1.753585  1.896079  3.401858
H  2.036482  5.674691  4.520368
H  1.994911  1.891247  5.962484
H  3.259856  4.846034  3.399568
H  4.077441  1.188307  0.249793
H  1.847184  1.119345  0.147718
H  0.782895  0.221554  0.776730
H  2.397845  3.739261  5.126679
H  5.612849  0.595637  1.291929
H  1.674519  2.342520  4.135877
H  5.668004  0.517974  5.186088
H  1.465266  1.736391  0.310593
H  5.401560  4.930165  0.177442
H  3.739974  1.458623  2.248029
H  3.835004  2.895683  4.730327
H  2.928082  3.769887  4.008965
H  3.820045  0.932973  1.749533
H  3.175886  3.426799  5.526886
H  3.994175  3.964012  2.167183
H  1.509901  0.806821  4.714108
H  4.745254  0.159421  5.349069
H  4.205897  1.711548  5.999441
H  1.618570  3.128814  0.997856
H  2.310814  1.459772  3.467834
