 250
  
H  1.492750  4.885999  3.657582
H  5.514723  5.780061  4.006972
H  4.287308  0.636919  5.105244
H  5.889633  5.885888  1.187710
H  1.201402  1.387785  2.458103
H  1.077071  3.357473  1.112158
H  3.664339  4.728417  0.872204
H  3.022052  0.748705  0.681134
H  2.623320  5.929130  5.986574
H  0.948432  4.661277  2.011010
H  4.672731  5.334907  4.299865
H  3.362820  4.925463  3.110934
H  4.788821  4.456304  0.555984
H  2.580636  4.156236  3.462219
H  2.855086  5.404437  5.036476
H  0.815726  3.124079  3.744494
H  4.247925  1.381551  2.482928
H  2.896145  2.492138  0.425080
H  0.588851  3.382299  2.002886
H  2.098629  2.868601  5.400052
H  1.428780  2.967788  4.499765
H  4.424471  1.365580  4.292753
H  1.919825  1.868654  1.779570
H  2.879425  4.382026  5.282696
H  2.275587  4.625257  4.430826
H  3.132786  3.294287  0.948728
H  1.205327  5.176894  4.569797
H  5.279253  4.388754  5.621892
H  4.382236  3.581281  1.817371
H  1.406702  4.038921  4.503689
H  5.071483  5.175300  2.249751
H  1.367054  1.559301  0.898602
H  4.279169  5.346585  0.438411
H  3.673564  5.896781  4.671721
H  0.200541  0.731330  4.773609
H  3.275593  1.959668  4.340739
H  2.336081  3.588768  4.282409
H  0.472105  5.205336  3.878094
H  5.538815  3.833483  4.866710
H  3.265500  0.109967  1.762484
H  1.419261  2.037103  4.192920
H  4.483039  1.296032  5.834774
H  5.373730  5.192872  5.040867
H  3.207322  0.971464  2.601185
H  3.565045  2.739271  1.790229
H  1.160119  0.199042  4.548951
H  5.672596  1.882688  1.190119
H  0.664021  3.801321  2.998675
H  4.581479  2.714881  0.058529
H  2.784413  0.361687  4.753475
H  2.802223  3.054075  3.448579
H  4.741583  1.938785  0.743026
H  1.109116  1.060406  4.154943
H  1.606981  3.190355  0.247488
H  3.536870  3.388370  2.522657
H  1.651670  1.085372  3.354735
H  4.286481  4.703470  5.663670
H  2.482707  5.122768  2.330491
H  5.603416  0.898444  1.521614
H  1.621572  3.851047  3.462971
H  5.869360  3.634505  3.954152
H  0.795014  5.762286  2.013471
H  0.372334  0.320922  3.930683
H  0.311999  2.081299  5.831018
H  3.834553  2.081844  0.039669
H  3.135987  5.932414  2.746620
H  3.922956  5.602093  3.668549
H  1.452056  4.353995  1.105234
H  4.621858  0.972882  3.323332
H  2.958385  1.509839  5.978133
H  2.157735  3.519076  2.725576
H  5.625293  3.450871  3.069447
H  2.302068  5.246660  3.348833
H  2.749060  4.226431  0.823537
H  1.573216  0.042545  0.119672
H  5.980748  0.670957  0.509539
H  3.578579  2.105944  2.603251
H  2.868084  1.774485  1.939655
H  2.206508  0.762195  5.728361
H  4.955089  3.493216  0.801613
H  4.453461  5.637260  5.327175
H  0.181013  4.987301  5.754509
H  5.345539  5.380909  0.026059
H  5.392915  3.402492  5.925373
H  1.774319  5.188411  1.664477
H  5.536404  2.603028  0.491979
H  5.341128  1.804759  5.976247
H  1.320558  3.053704  2.763732
H  3.582460  1.088176  1.640681
H  0.123939  1.147233  5.639843
H  1.145472  2.286150  0.248573
H  2.057200  0.519556  4.111550
H  2.211066  1.057542  2.515898
H  2.032049  1.937656  5.035187
H  0.720969  4.855166  2.978498
H  0.351585  0.763839  2.298794
H  2.257216  4.306848  1.681979
H  4.319373  4.531620  1.669249
H  5.084250  0.420505  5.805942
H  4.087613  0.314778  0.126385
H  1.727592  4.489185  2.725037
H  1.767528  2.441845  0.995034
H  0.984253  0.767200  0.394658
H  4.135818  0.429740  2.279980
H  0.583410  0.538317  1.345359
H  4.057747  4.548181  3.963303
H  0.638782  2.471508  1.047412
H  2.143773  5.550427  4.290010
H  4.005182  4.347352  2.608620
H  0.398107  4.186476  1.334141
H  2.031042  3.890044  5.238560
H  1.508748  5.493157  2.665659
H  5.432386  4.201775  1.463893
H  4.089869  0.316311  1.078659
H  3.579384  5.441325  5.718328
H  1.091886  4.953812  0.239285
H  4.108389  5.402533  1.470232
H  3.498800  4.171168  0.021096
H  1.091095  4.457562  5.386682
H  5.450281  1.563012  3.217014
H  0.363760  2.845613  2.862764
H  1.848095  2.715980  3.635966
H  5.086964  1.081353  0.670719
H  4.156212  2.777941  0.979710
H  4.498294  2.049453  3.272670
H  3.789890  3.802342  5.010093
H  2.839750  1.316907  4.975077
H  1.171878  3.388794  5.427682
H  1.383415  5.980035  3.582961
H  3.343160  5.779355  0.659089
H  5.090576  5.163376  1.214872
H  5.754856  5.985325  2.282271
H  2.862331  1.022897  3.528919
H  3.710394  1.463122  3.482551
H  5.199083  1.099550  5.072590
H  0.516335  5.837033  3.042273
H  0.437312  3.058062  0.336479
H  4.841213  0.001017  3.149154
H  2.627984  2.581995  1.481736
H  5.467840  4.734769  4.114671
H  5.955878  0.025350  5.603183
H  0.893870  3.966770  0.356722
H  4.028511  1.181652  0.697606
H  1.285852  0.479401  2.651965
H  3.030960  2.348080  5.358229
H  0.588925  3.492742  4.649827
H  3.584040  3.838443  3.392453
H  5.244183  0.195788  4.821559
H  0.264737  3.993143  5.536364
H  2.844535  4.963593  0.204728
H  5.049502  2.649083  1.508495
H  1.485875  0.055554  1.155165
H  5.988272  2.522262  1.885455
H  0.017835  5.097256  1.864619
H  2.946310  4.190055  2.505239
H  5.896570  3.313647  1.163718
H  3.302849  0.636762  5.585723
H  0.933241  0.556191  5.463087
H  4.866741  0.034483  1.735162
H  0.870272  5.226644  1.165892
H  1.539962  0.866035  1.698060
H  4.762675  4.948853  3.272721
H  2.154016  3.454077  1.112680
H  2.741804  2.632357  2.547215
H  2.765504  5.163978  1.281507
H  4.938901  4.231791  2.549963
H  4.963242  2.817092  3.662222
H  3.990335  3.752895  0.774053
H  0.723474  4.238872  3.853492
H  5.638118  2.899257  4.543956
H  0.371956  1.547082  0.632894
H  3.203932  4.087597  4.281983
H  2.936252  3.321035  5.180224
H  3.075453  5.121498  4.069479
H  5.384244  3.437574  2.113890
H  2.195929  0.071104  2.092830
H  5.220596  1.958233  4.145123
H  2.090305  2.055564  0.088528
H  2.544906  0.889730  1.597174
H  5.719695  0.486074  3.192208
H  1.775611  1.008902  4.906252
H  1.849084  2.835244  1.957057
H  4.151662  3.532401  4.155525
H  0.576864  5.836975  0.383970
H  0.955621  2.372560  2.045872
H  4.426359  2.577763  2.364881
H  0.968875  2.089386  3.250537
H  1.905596  4.309764  0.162177
H  4.443920  3.760379  5.838542
H  3.865690  1.593120  5.146334
H  2.469041  1.627123  0.976281
H  2.885973  2.102912  3.410066
H  5.360329  2.609631  2.669864
H  3.784763  2.787590  3.330617
H  2.010084  5.012486  5.412682
H  3.984280  2.693933  5.255666
H  4.635147  4.390090  4.848516
H  4.566020  3.360535  2.970513
H  4.991457  0.055938  0.729061
H  2.572991  3.591634  0.084636
H  1.993156  5.216641  0.617767
H  5.833634  1.855905  4.956903
H  4.142483  5.432027  2.629178
H  1.983522  0.842226  0.705800
H  3.740128  0.448799  3.299725
H  3.419827  5.011821  2.066936
H  0.011885  5.010845  0.703164
H  0.231854  1.828188  2.605528
H  0.625132  0.990551  3.215784
H  0.772536  1.575672  4.963379
H  0.961051  5.529912  5.519727
H  0.299305  5.621212  4.742550
H  2.948047  0.008555  3.751719
H  0.510173  2.375358  4.465007
H  1.141520  2.401176  5.295436
H  3.698025  4.897934  4.879082
H  5.354062  2.590089  5.440285
H  4.240512  1.932869  1.627722
H  2.696799  3.416468  1.922638
H  3.501450  4.011177  1.661693
H  4.897808  4.022302  3.710796
H  5.658298  5.345657  3.120858
H  0.247034  1.525635  3.974154
H  2.401729  0.028967  1.095073
H  2.214230  0.199566  3.112709
H  5.888633  4.034215  0.482770
H  4.403799  0.389603  4.104253
H  5.931750  2.501169  3.642557
H  0.238588  2.993581  5.431843
H  1.937299  5.974945  5.132700
H  1.406669  1.474696  5.704865
H  5.247786  0.860205  2.426781
H  5.866882  4.429734  3.264355
H  2.452796  2.587688  4.416632
H  1.500725  3.787895  1.996725
H  3.555643  0.883058  4.332482
H  2.266248  1.517535  4.096249
H  0.590139  1.479518  1.681475
H  3.592875  3.161668  0.010631
H  0.210281  4.596411  4.764260
H  3.452155  1.921225  0.978657
H  4.730218  3.277607  4.914376
H  4.700899  2.046891  5.005062
H  3.306106  3.052547  4.315126
H  1.860606  2.047918  2.884717
H  0.064471  4.210828  2.297152
H  4.617010  1.008325  1.565168
H  5.175414  1.778036  2.139690
H  4.164081  2.417596  4.223444
H  5.428111  0.844935  4.077173
