 150
  
H  1.851003  3.882749  3.636625
H  3.599929  3.432406  1.774698
H  5.685876  5.691220  0.207675
H  2.835381  4.723370  2.039045
H  1.992377  4.678956  5.675069
H  1.547896  5.880150  3.541072
H  4.270211  5.044688  2.402029
H  3.746048  1.298740  1.612663
H  2.721428  1.699208  3.004548
H  0.690461  1.506805  5.495309
H  3.328542  3.037051  0.638714
H  2.687631  5.779085  3.456076
H  5.616094  2.878774  2.561103
H  1.689769  4.189091  4.727264
H  1.539614  2.753751  1.815078
H  0.807771  2.066451  2.448168
H  3.689468  1.782455  2.702054
H  3.905673  5.973403  3.101235
H  0.976475  5.883413  1.770715
H  4.103338  1.334131  3.565857
H  2.126088  0.566891  4.168735
H  1.686066  0.390355  1.020643
H  0.814771  5.670068  5.904368
H  1.159776  0.364031  2.737374
H  3.785418  4.097684  4.494478
H  1.733006  2.945200  4.291023
H  2.208410  2.145308  1.207062
H  0.244849  0.684679  5.995910
H  4.941655  5.953009  2.204193
H  1.488390  1.764197  0.316054
H  2.288515  5.716625  0.051915
H  1.488612  1.348791  1.269877
H  5.510828  0.549862  0.814016
H  3.523467  2.022055  5.804883
H  4.421886  2.522251  5.555261
H  3.814730  1.404816  4.724060
H  2.023129  0.779735  3.154550
H  0.381037  4.927134  1.947270
H  1.160010  3.663785  1.434350
H  3.865164  0.986645  0.509902
H  1.045024  0.574522  4.937879
H  3.302191  5.266740  4.191761
H  2.604098  3.607559  4.645141
H  2.815931  1.283563  4.574916
H  3.386750  2.978536  4.303077
H  0.923941  3.550256  3.329261
H  5.583952  4.556510  0.149494
H  3.238779  1.999625  3.848893
H  1.183432  4.591024  3.704556
H  1.936712  3.352680  5.493973
H  3.319919  5.995829  0.295896
H  4.055007  3.704960  5.580065
H  4.221249  5.021179  0.369179
H  1.478463  2.364706  3.311883
H  0.283621  4.253058  1.158172
H  4.556207  0.627098  1.414391
H  4.937525  4.522542  0.949856
H  2.349619  2.482513  2.444530
H  2.311449  0.505135  5.199321
H  1.570999  4.970372  1.727371
H  4.463007  1.382155  5.745768
H  4.293067  4.773084  3.532756
H  5.642916  4.960188  2.974837
H  5.342666  3.534361  0.867861
H  3.177083  4.962619  0.283407
H  5.707700  5.703401  1.478040
H  4.818601  1.469938  0.741567
H  5.613140  1.586013  5.916658
H  2.564504  2.881949  3.500014
H  5.226805  2.448634  0.574866
H  4.123527  2.540207  3.568608
H  2.421432  0.679517  0.307248
H  3.067504  0.530598  1.204399
H  2.023023  4.061167  1.896809
H  4.897000  1.777536  1.777068
H  0.875234  5.354731  2.853202
H  2.156724  1.644569  3.840053
H  0.227562  3.071392  1.425859
H  4.384827  3.093076  2.599722
H  3.143167  2.317323  1.707317
H  1.742859  1.604260  2.500377
H  3.774742  4.028546  2.541836
H  3.332437  0.855503  2.497857
H  5.980563  3.861517  2.997912
H  1.797963  3.450164  2.668515
H  3.034358  4.022285  1.008110
H  1.205775  4.377807  0.384557
H  2.085076  4.527402  2.851286
H  4.648162  3.954722  1.773246
H  1.059236  4.289105  2.494918
H  2.588792  2.397312  4.694461
H  3.309658  2.848117  2.744481
H  3.035306  1.519076  0.879451
H  0.707102  3.121534  2.415022
H  3.280632  0.297758  4.532316
H  2.616179  3.176501  1.689556
H  0.723011  0.960275  1.996393
H  2.650825  1.337795  1.962819
H  3.154423  3.023515  5.373189
H  4.044461  3.824111  0.696138
H  4.480794  0.127941  0.468862
H  5.914723  2.114077  1.742945
H  0.472335  2.370265  0.187400
H  2.865996  3.996652  5.909914
H  1.984613  5.568775  2.590907
H  1.455454  2.850683  0.393543
H  5.694759  3.889326  1.941785
H  3.938494  2.079163  0.944433
H  2.733091  3.704436  2.647727
H  3.011920  4.245860  3.698641
H  1.797685  5.610198  4.889840
H  1.673081  1.485268  4.846720
H  1.558826  5.329481  0.714778
H  3.942792  0.113326  1.966460
H  4.719666  0.923437  2.399713
H  5.976568  5.991861  2.656569
H  1.205255  2.428165  5.490683
H  2.126171  4.941402  3.960808
H  4.794406  2.007229  2.816629
H  2.378618  1.593402  5.646316
H  5.618990  0.748288  1.904568
H  3.317627  0.906161  5.499533
H  2.294326  5.674114  1.604829
H  3.444611  5.513302  1.248606
H  5.954014  1.433357  2.692028
H  3.950352  5.866548  5.402623
H  3.361535  4.981656  3.024077
H  1.907156  0.607102  2.064608
H  2.468470  2.509254  0.063246
H  0.233283  2.496192  3.441022
H  4.929286  2.871847  1.707473
H  0.927667  2.203915  1.147629
H  4.102989  3.654676  3.509416
H  2.244137  4.647872  0.831182
H  4.594749  5.481739  1.342145
H  3.663834  4.813217  5.352189
H  2.968609  5.799220  2.423859
H  0.949761  1.343257  3.264157
H  2.115675  3.677978  0.540101
H  2.879976  5.585559  5.243445
H  0.503065  0.359175  0.965641
H  5.272582  4.790803  2.074002
H  0.550223  3.434141  0.492706
H  4.887977  4.112541  2.883088
H  0.506462  5.294020  0.894880
H  1.423652  0.585443  5.995213
H  3.849205  4.586948  1.442103
H  3.018026  0.834337  3.632235
H  2.716771  4.665324  4.875903
H  0.067448  1.477591  0.856070
