 250
  
H  4.700388  4.122716  4.805602
H  2.397295  1.728441  4.239878
H  5.407946  3.065008  3.663864
H  2.322691  2.748120  4.669924
H  1.915635  3.662903  4.864276
H  4.146079  5.118390  0.904645
H  3.038070  3.540305  0.530627
H  0.178443  1.302446  2.865975
H  4.581638  5.872893  1.357365
H  5.500735  3.690791  0.344408
H  1.477652  4.693465  0.805121
H  0.112209  2.794433  0.542781
H  0.949259  4.584881  3.572379
H  2.696664  5.357627  5.727388
H  4.927627  3.042988  4.615347
H  5.988166  2.256731  2.315772
H  1.355669  3.644915  1.320151
H  4.451613  1.587683  5.148787
H  3.601097  2.642055  0.284543
H  1.553495  1.252977  2.619682
H  2.225690  3.006134  2.808643
H  1.694392  5.464461  1.647760
H  0.079997  0.398074  3.356105
H  1.503386  0.214120  3.143031
H  1.775732  3.858276  3.227335
H  5.846080  2.223283  3.325125
H  5.422099  5.772833  0.739651
H  2.685052  5.068077  1.553543
H  5.466118  1.575229  4.750360
H  1.502380  4.612133  5.164109
H  3.286816  0.112545  5.367426
H  2.877333  2.844694  5.634659
H  1.583379  5.459534  5.764965
H  5.152232  2.715302  0.364549
H  2.617870  5.175722  4.030596
H  0.903497  0.980404  3.508985
H  0.775464  3.816649  2.990787
H  4.804403  3.460854  5.494783
H  0.829716  0.200970  4.181440
H  1.430895  2.732458  1.473786
H  3.963217  1.366982  1.733213
H  2.782196  0.140359  0.360070
H  3.875190  5.925561  0.366440
H  1.940096  1.083850  3.568261
H  5.606312  4.025613  2.862268
H  0.604601  4.261910  4.442031
H  0.372450  1.283642  1.213189
H  3.290695  5.269017  4.796707
H  2.098873  5.325226  4.979450
H  3.935882  1.041406  0.043143
H  5.683065  3.075545  5.550917
H  0.081252  1.127272  0.223019
H  4.391275  3.404957  0.401457
H  3.079548  4.415036  5.948867
H  3.517041  1.603231  4.407493
H  4.075190  2.593216  5.401109
H  4.450409  0.428539  3.375844
H  0.945942  0.610893  5.636181
H  0.942250  3.690175  5.245587
H  2.144135  5.423537  0.724668
H  3.898581  3.010873  2.862767
H  0.118751  4.159227  5.414050
H  3.102792  4.800891  2.399597
H  3.584292  5.600827  2.683219
H  2.785592  0.645699  3.747029
H  0.914966  1.551402  5.597060
H  2.254263  0.326799  1.199442
H  4.699592  1.043148  4.252438
H  3.964833  3.413489  4.745818
H  5.955584  5.051151  1.761231
H  2.156463  1.185163  1.694732
H  2.187165  2.178030  1.022513
H  1.257029  2.946947  3.001683
H  3.684215  5.258890  1.702168
H  2.940266  0.994659  4.856151
H  4.301549  5.464437  3.411682
H  1.199161  3.639953  4.044133
H  5.134240  4.022850  3.871293
H  5.642625  4.162892  1.468870
H  5.913497  0.819479  2.071213
H  0.504692  3.998885  2.004145
H  3.385696  1.576087  2.496287
H  5.871984  0.681395  4.324934
H  1.906302  2.036281  3.260765
H  0.706876  2.943583  2.165248
H  4.409290  5.987275  5.473874
H  3.755066  1.768656  0.892156
H  5.398793  1.172146  3.570609
H  4.561037  3.083447  2.112636
H  5.829705  5.154511  5.740401
H  1.496897  3.764163  0.126027
H  5.944729  2.016997  5.674076
H  5.034134  2.592262  2.817532
H  2.453619  1.754967  2.412353
H  0.229832  1.618345  4.075232
H  4.531739  5.078350  5.111051
H  2.861313  1.975183  0.253419
H  1.624566  1.975734  4.973576
H  4.003419  0.277899  2.044161
H  0.297409  3.103164  4.773546
H  4.342387  1.090383  2.604588
H  2.340043  3.490594  1.445263
H  5.187235  1.624962  2.692301
H  2.434998  3.716674  5.750432
H  2.328986  2.613958  1.936976
H  5.861691  4.711921  3.589477
H  2.165794  1.243002  0.621704
H  2.801216  1.034734  5.837301
H  4.885002  0.773602  1.786956
H  2.454934  4.301642  0.791084
H  1.770000  2.904544  5.592036
H  3.852022  3.356153  1.346818
H  4.136390  3.893981  3.733607
H  0.700453  2.716754  5.644235
H  5.115085  0.642331  5.083368
H  4.048361  4.793635  4.242152
H  3.069465  3.675561  3.060036
H  5.744053  4.662194  0.597223
H  4.709116  5.821868  2.495311
H  5.707011  2.418392  4.356909
H  4.056586  4.310430  1.601348
H  0.119853  3.728697  3.768469
H  2.926926  1.573710  3.392107
H  3.111916  5.114357  0.635728
H  5.020785  4.981749  1.407349
H  4.759566  0.428021  0.315600
H  5.212267  4.358129  5.653055
H  0.850550  4.651996  0.045015
H  1.868303  4.430481  1.664772
H  0.027265  3.130572  2.974031
H  2.623322  2.545551  3.703699
H  3.951463  3.900389  2.506601
H  3.306937  0.022129  1.182223
H  1.359710  4.531688  2.577452
H  2.448810  4.010101  2.350514
H  2.713346  5.922341  2.149577
H  4.739177  4.345326  0.730314
H  4.760833  3.533110  3.019421
H  2.581994  5.719713  3.131519
H  1.478682  2.176869  2.318343
H  1.401230  0.044502  4.974186
H  2.433655  3.562279  3.967438
H  4.752162  2.020512  1.832405
H  0.404369  5.289518  0.906629
H  5.202281  0.629053  2.786018
H  1.178265  5.915509  0.898456
H  0.706408  1.511765  2.050495
H  5.309243  4.907766  2.517743
H  4.206868  2.080603  2.748072
H  1.770880  0.352137  0.189658
H  4.871841  4.087770  2.008311
H  5.423993  2.602905  1.356886
H  0.926638  1.121626  4.713582
H  4.250744  4.254309  5.815860
H  3.706163  5.138396  5.730479
H  2.518709  1.912447  5.306387
H  3.447994  0.611015  2.956407
H  3.704679  0.595683  4.076143
H  0.539074  4.170471  1.025872
H  0.710201  1.969586  0.436303
H  3.592434  2.238157  3.658298
H  4.147624  5.865804  4.520050
H  5.560651  3.738706  4.712761
H  1.735576  5.219070  3.337866
H  0.934861  4.878477  1.660795
H  2.525439  4.511111  3.264081
H  3.593221  3.540964  5.688202
H  5.598590  4.724109  4.779397
H  3.029762  2.724299  1.149761
H  1.932570  0.080870  4.044771
H  4.839419  2.017682  3.616414
H  2.574624  4.471802  4.951284
H  0.467675  2.333213  1.393266
H  0.776873  0.534190  2.505175
H  4.998907  2.345224  5.390590
H  3.411029  3.158428  3.898205
H  5.029557  5.037081  4.074695
H  3.140640  0.758279  1.978729
H  0.592512  2.100755  4.833548
H  0.296284  0.308016  0.747204
H  5.379920  5.645121  4.992780
H  4.435390  1.958374  0.153243
H  2.179121  3.000252  0.536759
H  4.802202  5.212172  0.136766
H  4.793309  1.534094  0.982717
H  0.610560  5.618638  0.015241
H  1.839069  1.222378  5.603646
H  4.339544  2.200680  4.429909
H  1.173776  5.258891  4.239170
H  3.654040  2.343344  1.850707
H  2.966062  3.521859  4.910907
H  4.475700  2.882988  3.664822
H  2.817237  0.089776  4.512276
H  2.138842  5.072094  2.448712
H  3.464165  1.734354  5.478275
H  0.431664  4.824022  2.712602
H  3.107619  0.978860  0.836394
H  1.086757  1.057308  0.566535
H  1.934666  0.937289  4.635911
H  5.689031  1.892861  0.693078
H  1.838771  4.566660  4.214149
H  0.854257  2.034205  3.092915
H  0.678697  5.552953  3.369312
H  5.470551  5.910439  1.777926
H  1.778345  0.338003  2.180924
H  5.990689  5.554370  4.195886
H  5.653109  0.248721  5.796724
H  3.637098  4.714206  3.219849
H  5.366888  5.668007  3.278329
H  3.964702  0.757764  5.042998
H  0.514259  5.956006  1.668117
H  3.748465  4.168496  0.678683
H  0.619571  5.059452  5.095870
H  0.627270  2.788410  3.829583
H  1.532070  3.598785  2.274314
H  2.957193  1.749592  1.532996
H  4.399614  2.568856  1.039975
H  3.070043  2.447168  2.792065
H  4.061327  0.712542  1.087218
H  1.166662  5.520994  2.477777
H  5.587654  1.656179  1.645531
H  1.194751  0.763211  1.532661
H  4.099467  1.390040  3.574018
H  2.285894  0.261560  5.352395
H  5.070876  0.066407  4.150514
H  0.521137  3.606629  0.202280
H  1.117795  2.887567  0.564138
H  1.357232  1.696618  1.288174
H  3.151481  4.170069  1.519083
H  0.045293  0.963430  5.227668
H  1.679203  2.808306  3.851778
H  5.531678  3.290120  2.146681
H  4.697090  4.594267  3.178603
H  1.224930  1.873554  4.047496
H  3.274818  2.524612  4.742082
H  4.978110  3.448101  1.223866
H  5.185172  1.281849  5.835146
H  3.176920  4.306545  4.091911
H  2.479689  0.804649  2.730034
H  1.253924  2.836239  4.726541
H  0.133770  3.308256  1.372697
H  3.631353  4.335140  5.063699
H  3.443274  5.610417  3.794301
H  0.382230  5.995507  5.091264
H  2.037458  4.640833  5.998234
H  0.074609  5.809421  2.551276
H  4.283288  4.925486  2.400366
H  1.686147  2.067549  0.146768
H  5.489979  0.787790  0.927102
H  3.130235  3.252375  2.116634
