 100
  
H  3.297761  2.106576  0.318664
H  4.338186  0.939087  4.485183
H  3.486812  5.393758  4.225909
H  3.865448  4.916849  0.655069
H  4.524153  2.906415  3.494700
H  4.655631  4.825805  1.431272
H  5.189632  2.345105  5.277211
H  3.878936  3.335113  5.111669
H  5.194235  5.655491  1.792573
H  5.729355  4.663807  1.724880
H  4.760552  5.108379  5.900881
H  4.132013  5.153166  2.334874
H  3.733338  3.857546  4.180230
H  2.616898  1.465849  5.287435
H  3.370747  0.865911  5.924964
H  3.288106  1.335982  2.601721
H  4.504377  5.497855  4.943621
H  2.963168  5.416579  0.726142
H  0.091839  4.079709  0.788946
H  5.847199  5.955744  1.153047
H  5.524301  4.550397  3.569644
H  3.817918  5.920552  0.165898
H  5.575720  2.452660  2.157442
H  3.094929  4.197261  2.652769
H  3.645576  4.663689  3.375706
H  4.051761  0.893804  3.425862
H  0.085566  3.658275  2.456542
H  5.609193  4.578681  4.636479
H  4.982485  4.247431  0.698335
H  5.160277  0.786141  3.331610
H  3.617648  1.885652  5.257079
H  4.284550  2.268182  0.889852
H  5.583233  5.873745  3.111778
H  4.747304  3.507216  4.394137
H  5.606751  1.444082  2.638260
H  4.695712  5.229911  3.259887
H  4.328769  1.982446  4.454701
H  3.856226  1.538775  1.751991
H  4.602544  1.817494  3.407178
H  4.107416  3.935455  0.077565
H  4.452404  4.251784  5.113815
H  4.683972  3.084653  0.506011
H  5.079973  4.622025  2.533545
H  3.445231  2.513900  1.447909
H  3.334835  1.754813  4.259885
H  4.137923  4.049990  2.306752
H  5.194712  5.419360  4.118890
H  3.206615  4.173904  0.585428
H  3.395640  4.718717  1.682950
H  4.489166  1.153103  2.518700
H  5.556260  0.050927  0.064319
H  5.418322  3.476744  3.610512
H  3.644512  0.062098  5.093608
H  5.383172  4.310233  5.706586
H  4.461913  0.536527  5.694488
H  3.035588  5.403765  2.357733
H  4.359059  5.994071  3.985610
H  4.556196  3.997456  3.280295
H  4.505423  3.131884  1.646927
H  4.707500  0.546917  1.599963
H  0.117192  5.904010  4.621535
H  3.064006  0.442455  1.066242
H  3.005412  1.486052  1.135816
H  5.428448  1.295483  5.684338
H  4.007419  0.786286  0.731904
H  3.157581  3.542477  1.683105
H  5.278121  1.487323  4.171587
H  5.260478  0.415705  4.383853
H  5.504382  2.748300  4.289625
H  5.409338  2.408976  3.243904
H  3.072515  3.385690  5.769172
H  4.379402  4.785497  4.151967
H  5.851244  3.452873  5.029605
H  5.641273  0.537678  2.187122
H  5.492711  3.064083  1.283848
H  4.459710  1.691199  0.095545
H  3.673004  3.088630  0.712723
H  4.516797  2.326834  2.505917
H  5.280966  2.194236  0.559238
H  4.791343  5.780892  0.792367
H  3.993812  3.989514  1.213105
H  5.671513  5.094856  0.532038
H  3.700177  2.780182  4.125288
H  5.008215  3.287916  2.601251
H  3.890493  5.694050  1.446629
H  5.588971  3.327809  0.133165
H  2.893288  2.666244  4.830776
H  3.757625  4.900337  5.552016
H  4.821619  3.286401  5.418677
H  5.076207  0.905119  0.584465
H  4.865818  1.675773  1.508159
H  5.802682  5.250708  5.385739
H  4.072827  2.649198  5.772346
H  3.505510  2.185332  3.319912
H  4.644870  0.038512  2.682701
H  3.344056  0.603227  4.172692
H  3.687694  0.368652  2.130399
H  3.657837  3.059455  2.550603
H  5.143336  3.894265  1.721246
H  3.696763  5.761490  3.076502
