 200
  
H  2.558767  3.277935  3.999473
H  2.048593  5.866546  0.378800
H  3.931925  4.112937  4.143956
H  0.854639  4.642200  1.597760
H  0.986774  5.693864  1.571035
H  5.196410  2.695629  2.989570
H  4.162662  3.312127  4.840719
H  4.398373  2.160418  2.177539
H  4.112322  5.337926  0.875347
H  5.281352  1.968096  4.316434
H  0.937215  1.937275  3.319645
H  0.817355  3.207223  5.082348
H  1.972332  1.527395  3.661751
H  4.615011  0.566940  3.115792
H  2.605557  5.061883  4.829152
H  0.975637  2.148669  5.498706
H  0.619938  4.556756  0.587658
H  5.025579  2.942732  5.101862
H  0.863470  0.191131  4.564853
H  1.633707  3.005461  5.865431
H  3.657782  5.723884  4.893004
H  5.118193  5.086783  0.368580
H  1.563532  3.606439  3.262770
H  4.045662  0.265897  1.395081
H  1.871150  1.455587  4.866531
H  5.957225  1.291018  5.832851
H  3.251439  3.773342  2.433809
H  5.800362  4.751800  1.115688
H  4.513327  1.343701  3.913458
H  3.249186  4.825172  5.681263
H  2.689552  1.144125  4.292012
H  5.990378  5.341785  5.686317
H  3.665182  0.331679  2.463167
H  5.122500  4.781223  5.366367
H  4.817775  4.866255  1.478821
H  4.953380  3.723207  1.067360
H  4.866435  0.105451  5.063217
H  5.790399  0.575591  1.776794
H  5.251000  1.598329  3.131371
H  3.994263  1.553210  1.427469
H  0.128803  1.355403  3.703365
H  4.641253  5.086190  4.384454
H  4.184821  4.536965  2.339567
H  3.030395  3.021361  4.984520
H  3.644850  4.439234  1.354294
H  5.370907  3.859826  3.056050
H  5.987381  5.424049  2.008229
H  2.184549  2.436768  0.663544
H  4.733263  3.745005  5.711546
H  3.189869  1.033778  1.994991
H  5.605297  5.528835  4.325976
H  2.830505  0.042375  5.428280
H  4.931275  5.582379  3.463141
H  1.981440  0.398652  4.582237
H  0.854233  1.112633  5.150815
H  1.097621  2.462856  0.691927
H  2.802837  3.016962  1.723670
H  1.735910  4.541987  5.184368
H  3.046082  2.839832  0.119171
H  1.695993  5.408305  4.260973
H  5.684961  3.201809  2.017516
H  0.937311  2.972680  3.857339
H  1.605787  0.567929  5.646710
H  5.760901  2.574181  1.142920
H  0.100487  2.305953  0.266431
H  4.219849  2.351274  3.379171
H  2.070363  4.161188  4.168304
H  3.496166  3.434587  3.410304
H  0.777785  3.692644  2.066248
H  2.188000  3.503066  0.743213
H  2.864685  2.495791  3.304926
H  2.590262  4.961379  3.734288
H  0.823440  2.785074  1.663340
H  2.614094  2.228039  4.324955
H  2.084581  1.489623  0.174242
H  4.513538  3.320699  3.735625
H  3.780744  0.967556  0.501820
H  5.260307  1.633951  1.783809
H  1.645971  1.367735  1.045468
H  5.175953  4.875117  2.610462
H  4.131850  1.545017  5.610311
H  1.789074  3.342810  1.795681
H  0.244729  1.231647  2.648115
H  3.326577  1.951559  5.005232
H  1.563173  2.449454  4.564065
H  1.950162  2.292480  1.646517
H  2.293917  4.887659  0.111131
H  0.446666  3.323810  2.913750
H  4.017327  2.646529  5.607800
H  4.541019  0.868474  2.183433
H  4.942196  1.096460  0.020292
H  5.516713  0.276779  2.798112
H  2.538929  3.787253  5.652087
H  0.841351  5.159558  5.007978
H  5.345664  2.949731  0.110191
H  0.637988  5.005182  3.964206
H  1.996612  1.133163  2.080521
H  1.178361  5.295838  0.080913
H  4.480031  2.008027  0.534604
H  5.526204  4.695062  3.759563
H  3.516122  0.600983  3.430411
H  1.499101  0.275339  2.325575
H  2.764342  1.106983  5.294272
H  3.538938  2.702599  4.129664
H  2.928590  5.115920  0.945873
H  5.945226  4.625819  4.825415
H  3.010853  5.729533  3.171588
H  2.926185  2.027062  1.991347
H  2.556105  3.998731  3.264447
H  5.497076  0.194814  5.937573
H  3.388990  5.391033  1.779237
H  1.871200  2.615125  3.584911
H  4.301378  2.108960  4.570302
H  2.093843  5.296318  1.939326
H  4.867761  0.829911  1.120501
H  0.528905  0.194819  2.580879
H  4.239385  5.414430  5.770173
H  1.689887  4.758507  0.920058
H  5.123788  1.983960  5.498368
H  1.007573  5.270624  2.600485
H  4.106386  4.508792  5.171029
H  0.065845  2.457864  5.162332
H  3.912358  3.501767  1.629744
H  0.056157  2.244811  2.386827
H  4.723672  2.815645  1.487829
H  4.580375  4.586036  3.464420
H  4.255520  3.541617  2.741043
H  4.972418  4.048619  4.477160
H  3.205104  1.811338  5.993482
H  0.457312  4.368395  3.046166
H  2.856963  5.952079  4.179651
H  3.115301  4.114581  0.560943
H  3.538111  2.694131  2.524923
H  0.084477  2.382531  3.502439
H  4.809311  1.119331  4.897419
H  3.579268  4.474964  3.201216
H  1.939164  3.357594  4.861140
H  2.873663  4.886893  2.536001
H  1.155106  1.021998  4.094028
H  0.097718  3.668519  1.158568
H  1.228390  2.677286  2.629035
H  2.619644  0.202912  2.271169
H  3.411498  2.418795  1.069148
H  0.053957  0.582021  0.677543
H  0.514171  3.335544  0.212577
H  3.717760  5.168719  3.910744
H  1.090825  4.049571  4.358776
H  1.652755  4.324164  2.282306
H  3.942439  0.466164  5.551482
H  2.376420  3.061884  2.596591
H  0.683578  0.253079  5.765833
H  2.502568  4.168585  1.597302
H  4.207324  4.374438  0.337385
H  5.757159  4.160639  0.166403
H  2.982361  1.387161  1.033566
H  1.804795  5.640001  5.320866
H  3.974334  5.431506  2.915992
H  2.051278  2.022879  2.703300
H  1.111666  3.827837  1.085258
H  5.864395  3.652294  5.301232
H  5.326631  5.834060  1.132685
H  1.995282  5.437371  2.940286
H  1.070432  0.265544  0.765222
H  2.331175  2.230932  5.417282
H  5.967175  1.312165  4.738791
H  5.546596  3.115179  4.306115
H  3.006576  0.154661  1.180372
H  3.066816  4.113639  4.790324
H  5.365132  0.640150  4.100743
H  1.212393  5.928223  3.461361
H  0.666471  2.026854  4.433046
H  3.922807  1.419236  2.810077
H  1.272825  0.976347  3.027839
H  0.192000  3.787135  3.859677
H  1.157164  1.730602  2.257208
H  3.704059  0.910865  4.562103
H  4.952145  3.940941  2.056582
H  3.501639  1.688526  3.742018
H  2.011437  0.399304  1.316501
H  4.017924  3.287057  0.611037
H  0.945219  1.243302  0.348544
H  0.486758  1.793382  1.245931
H  0.261735  0.313466  3.657296
H  0.678002  4.300267  5.480966
H  2.717522  0.732958  0.265354
H  5.513629  1.595317  0.785567
H  0.276480  5.606155  0.619300
H  1.510556  4.566144  3.393106
H  4.335143  0.159908  4.159838
H  4.565006  0.195822  0.370590
H  5.923341  0.198328  4.999806
H  2.193353  0.452294  3.386515
H  1.500748  4.077837  0.081871
H  0.108876  5.404811  3.224313
H  2.770756  1.280364  2.893393
H  4.691439  5.824005  2.247673
H  3.369588  5.841760  0.290288
H  0.963610  0.795151  1.749875
H  5.934619  4.318091  2.056662
H  3.593132  3.679027  5.681569
