 150
  
H  4.813950  5.271326  5.080139
H  2.463172  1.689289  4.794566
H  1.403393  4.444750  3.942909
H  5.942510  3.525893  2.664496
H  1.597630  0.482625  2.242463
H  2.437102  0.776342  3.499240
H  5.284819  0.357632  4.462715
H  3.972710  1.785367  2.285822
H  4.864427  4.220746  3.982870
H  2.506348  0.612938  3.617122
H  0.556623  0.310816  3.929402
H  4.685219  0.129642  5.902673
H  4.015779  2.788230  3.995255
H  2.194194  0.362493  1.869125
H  3.743304  3.886721  5.789789
H  1.176201  0.966853  4.243766
H  3.424274  4.350436  3.537186
H  5.930709  0.741352  5.198329
H  0.968077  2.379226  5.898031
H  4.305397  2.535453  2.213431
H  1.800344  3.563699  2.129966
H  2.848961  3.984534  2.245190
H  5.772250  4.891164  2.400064
H  5.982427  3.427440  0.781473
H  0.485465  1.195763  0.029779
H  3.852948  4.800152  4.992708
H  2.268482  4.842558  4.443378
H  2.818257  3.263695  2.012916
H  2.852110  2.495781  5.968581
H  1.636267  5.308729  5.946587
H  2.784045  2.701491  3.178806
H  4.937284  5.351740  4.613158
H  1.422135  5.062419  2.052336
H  1.222633  4.983093  5.425982
H  5.571158  4.908854  3.372812
H  1.117731  3.629422  5.258657
H  3.092287  2.355937  5.786700
H  1.722846  2.065554  1.911617
H  2.159411  5.987911  0.449040
H  3.207219  1.349814  4.179511
H  4.201465  2.005689  5.700438
H  4.735766  0.300877  4.596926
H  0.963677  0.342704  5.308966
H  3.509173  2.809796  0.412665
H  3.088760  2.186628  4.497833
H  3.384075  4.467853  1.583672
H  0.247475  4.332574  1.521567
H  4.902788  2.170556  2.827289
H  0.998982  5.770560  3.891361
H  4.309124  3.471606  5.228024
H  3.852117  5.204239  4.142933
H  0.649202  4.710024  0.384021
H  5.789273  1.514524  0.126060
H  2.075088  3.255663  3.886996
H  0.231302  2.972492  3.617055
H  3.760096  0.800157  4.865214
H  1.164382  3.128568  3.818145
H  3.785233  4.135320  1.449298
H  4.666236  0.223031  1.562233
H  2.621822  3.251949  0.898947
H  5.568886  2.756274  2.283461
H  0.146567  2.165505  1.197154
H  5.551395  4.110781  4.608090
H  0.953792  0.599137  2.796679
H  4.483001  0.333365  5.125312
H  4.067467  5.868381  0.105660
H  1.780267  4.106035  3.799631
H  2.946608  4.533178  0.069357
H  4.881626  3.175957  0.348255
H  4.957989  4.125884  5.642888
H  2.265410  3.148101  0.083212
H  0.372927  0.809165  4.672701
H  3.711902  1.413450  1.078346
H  5.183776  4.474245  3.901238
H  3.004336  5.556683  5.390085
H  3.526844  4.400861  3.269081
H  2.935523  2.746758  1.731408
H  4.432953  0.111729  0.790813
H  5.156229  1.565597  3.232833
H  2.539325  4.290170  2.968856
H  5.685017  5.263096  3.698647
H  0.914145  2.794143  0.636219
H  2.494366  4.675825  0.125349
H  5.522506  2.608481  0.297135
H  5.149448  4.167490  1.067993
H  2.008064  1.580665  5.787432
H  4.059441  3.259940  0.010306
H  4.336648  1.758746  1.628960
H  1.180589  3.558599  0.547297
H  0.630550  1.411982  5.108349
H  4.829894  3.921579  0.921954
H  3.896469  2.255976  0.955738
H  5.864799  0.883126  0.840110
H  0.430636  1.466043  1.142568
H  3.456138  0.507325  3.603461
H  3.987465  4.037796  3.290637
H  0.103466  4.772511  1.348556
H  3.850819  5.471826  2.747905
H  3.545832  0.165619  4.340403
H  2.914879  4.550386  0.497055
H  2.343285  4.300898  1.489098
H  4.490023  4.876935  1.849297
H  2.959362  4.319256  2.340735
H  4.259404  3.770212  5.680000
H  1.420502  5.427713  5.533782
H  2.742142  4.237449  0.583524
H  0.843197  3.181072  1.181631
H  4.692411  5.447550  3.489273
H  3.265404  5.431447  4.326457
H  0.946499  5.177200  1.026220
H  5.607597  3.643850  0.172938
H  1.379269  5.078459  2.426960
H  2.416619  2.469944  2.142998
H  3.117955  0.076546  1.406547
H  4.011684  1.784604  1.851857
H  5.221039  5.130026  3.134233
H  0.941449  3.120631  0.145199
H  4.899044  4.297824  4.478672
H  1.772748  3.439842  0.441966
H  0.590585  2.831643  1.896539
H  2.565711  0.096248  5.833056
H  3.054713  3.233741  1.309376
H  2.206211  4.030822  4.920336
H  1.928862  1.897408  3.555405
H  2.790965  3.171579  1.776604
H  5.538978  2.573130  0.152668
H  4.881292  3.191824  1.084336
H  5.039874  0.251710  4.956577
H  5.331847  2.396463  3.452466
H  3.348879  1.628000  0.680499
H  5.919071  5.155995  3.353666
H  3.234579  1.575273  0.157781
H  0.681558  2.903808  1.867639
H  1.147833  2.611218  3.334597
H  4.040479  3.091918  5.317013
H  4.637911  3.762701  2.275253
H  5.231363  3.377066  3.794533
H  5.939380  2.067732  0.352988
H  3.955370  3.789310  0.080730
H  5.221426  2.408921  1.088250
H  5.019545  4.392278  0.009092
H  2.981059  1.798395  3.140893
H  5.289505  3.217857  0.531089
H  3.436703  4.355205  3.115171
H  5.373163  5.757179  0.037909
H  5.252774  0.328191  0.898276
H  5.620356  1.530680  5.531947
H  5.598644  0.284970  3.294691
H  0.651084  1.230419  4.728164
H  0.414822  5.558669  4.973536
