 200
  
H  4.210454  5.923390  5.248878
H  3.467127  1.536171  4.492390
H  3.007905  4.121549  2.114839
H  4.489515  2.301551  1.222286
H  0.857360  1.361645  1.425031
H  5.657936  4.088754  4.770191
H  3.187082  2.848217  2.445799
H  1.884208  3.504568  4.413710
H  1.346413  1.572853  1.058652
H  5.708089  1.375670  3.827252
H  2.639500  5.797763  2.130745
H  1.752611  1.644569  5.902835
H  0.983487  2.845832  1.090733
H  1.617412  5.711923  0.344900
H  3.567356  4.411886  1.537136
H  1.514928  4.839560  4.323181
H  3.327510  5.447276  5.770558
H  0.891057  2.243608  3.687958
H  2.746325  2.298242  3.663577
H  3.832583  1.661295  1.280438
H  2.821831  3.292311  0.128472
H  0.939989  4.140685  3.271008
H  4.675865  5.218597  3.049339
H  3.419691  2.978215  3.265655
H  2.624708  4.904311  4.418687
H  2.041351  3.662222  2.543945
H  2.853936  4.098224  4.938409
H  5.559225  2.433765  1.909914
H  2.313707  1.003612  5.042826
H  1.194316  3.593403  2.986411
H  1.672143  2.102942  5.670325
H  0.046135  5.193628  3.731450
H  5.303574  2.553797  5.945135
H  5.486459  0.808512  5.061113
H  0.765306  2.131170  0.543911
H  4.278740  3.932675  4.486100
H  5.372400  2.350812  2.606416
H  2.800469  0.642222  5.623425
H  1.869408  0.117665  0.734852
H  0.580458  4.830787  0.252158
H  5.317377  2.176331  4.783640
H  3.291162  0.529830  1.638050
H  4.631397  0.532163  1.413497
H  3.690062  1.200453  2.280933
H  3.274528  5.136833  5.002216
H  1.710904  4.397889  4.948973
H  4.376029  4.505131  4.912735
H  2.115806  4.651330  1.011296
H  1.262047  3.949983  2.226061
H  2.502678  1.572239  3.918172
H  2.486483  3.786188  0.178850
H  0.582927  3.093238  0.496194
H  1.165624  5.179646  5.398862
H  0.856936  3.610351  3.853726
H  1.126550  1.982007  0.281445
H  0.891699  4.433677  3.229590
H  0.355161  3.400787  3.437572
H  2.916515  2.147855  2.169771
H  3.092357  1.724382  3.715711
H  0.356651  1.411076  1.190524
H  4.159317  2.507150  4.773156
H  3.488479  1.154407  1.098711
H  1.432094  4.285877  4.673905
H  0.122487  4.674713  4.820303
H  2.536486  2.095436  1.266936
H  2.201201  0.715443  2.588750
H  0.791265  4.646942  1.573535
H  2.412972  1.932243  5.655157
H  1.421817  1.246204  5.643742
H  0.417585  0.440232  3.055926
H  1.021866  2.547034  2.268398
H  0.694708  5.366822  1.445585
H  5.436860  5.691483  4.782999
H  4.298731  3.618546  5.977186
H  1.421750  0.367342  4.767925
H  2.466492  5.298456  2.908612
H  4.418456  5.316293  4.327896
H  0.955067  1.035110  5.975467
H  3.329025  3.809294  1.132463
H  2.295778  0.287785  5.668042
H  0.646225  5.399214  0.943782
H  3.699435  2.895994  5.109225
H  4.192071  3.855706  3.508351
H  1.711641  0.566538  1.820893
H  1.191482  5.417427  2.682662
H  3.976558  1.505005  5.326409
H  5.496900  5.005345  1.574339
H  4.290147  1.300920  4.509246
H  0.080435  4.348630  5.802242
H  3.469198  1.409778  0.977461
H  1.332959  0.645235  4.626931
H  3.535991  2.841592  0.172669
H  2.004561  1.983718  0.467384
H  3.477917  3.409661  2.811865
H  5.608379  1.909600  2.063291
H  1.489488  2.531556  5.012560
H  3.501131  1.265912  2.388255
H  2.484014  5.051405  5.310332
H  1.741118  3.433444  3.555789
H  2.513039  3.943297  2.316753
H  5.330617  4.945787  4.964078
H  3.226686  5.722902  1.279389
H  2.711204  1.289672  1.565615
H  3.714227  1.479417  1.494029
H  0.929808  0.176608  0.521760
H  2.166628  4.236193  5.932535
H  4.166550  5.964452  0.153790
H  4.262503  5.254250  2.201650
H  4.282073  5.333900  0.170911
H  1.639882  4.626407  2.886141
H  2.494918  3.752041  5.251287
H  0.486440  0.513761  5.153522
H  2.383494  2.936080  5.505692
H  3.629997  4.866454  4.790579
H  3.667066  1.043383  3.352117
H  5.723443  2.243371  4.503417
H  2.930940  1.529289  3.797176
H  0.813616  4.873536  0.466232
H  4.222614  1.574738  0.171496
H  1.727567  1.717625  2.025757
H  4.896110  3.108684  5.910125
H  5.640584  3.614073  1.670007
H  5.331353  5.419885  1.773886
H  1.268164  2.300199  0.216800
H  2.035514  3.741619  3.756283
H  4.233726  0.844819  2.760371
H  1.754469  4.914471  5.185848
H  0.306126  4.224422  3.328651
H  2.779566  0.679981  4.256952
H  1.041353  0.783974  0.943434
H  4.850559  3.210893  5.929052
H  3.331358  0.399288  1.753779
H  1.780196  4.839852  1.551641
H  1.572182  0.206028  3.300117
H  0.007934  4.987152  1.046067
H  2.311268  1.441709  1.551465
H  1.940619  0.608907  4.881643
H  5.689065  3.445154  1.692503
H  1.756145  0.073774  5.288692
H  0.469469  0.062004  4.154176
H  2.712798  1.777230  0.178071
H  0.618267  2.265706  3.197608
H  2.043815  0.257290  0.928464
H  5.521339  3.907073  5.652879
H  2.859352  1.369267  0.442035
H  2.706141  0.520768  5.262905
H  0.493488  3.473484  0.969814
H  1.364017  4.761705  1.475759
H  2.952453  5.774068  4.062277
H  0.131163  4.799656  1.224675
H  5.856525  5.734644  2.029424
H  1.735185  4.940520  0.891799
H  2.274396  3.580745  4.188614
H  4.777270  0.250898  4.942666
H  5.083015  4.900994  4.439846
H  1.746320  3.748041  2.036686
H  3.161282  5.845828  0.212355
H  2.053026  4.110925  0.957438
H  0.756312  4.612939  3.875510
H  2.921873  4.245694  4.101908
H  5.297671  2.444946  4.085288
H  3.621858  3.529663  3.005035
H  3.881038  3.763277  2.805854
H  2.377749  3.201347  1.550321
H  3.137788  5.968427  0.595803
H  4.618716  2.837365  2.296278
H  2.477609  1.857339  1.475050
H  0.120543  5.689416  1.972655
H  4.216465  0.862718  3.455444
H  5.032849  3.400604  4.279172
H  2.743483  0.575413  1.118705
H  0.964111  4.030017  2.585719
H  3.194119  5.838972  1.840796
H  4.612721  4.493936  1.782640
H  0.493542  5.296941  0.732754
H  5.675131  3.075647  5.035168
H  1.393115  3.375318  5.217536
H  5.167559  1.711159  5.001449
H  5.813774  1.261754  5.448672
H  5.937364  1.680779  5.461955
H  1.817343  1.501043  5.383474
H  0.716765  4.988233  3.314000
H  3.340256  0.068909  0.038425
H  2.947641  4.141230  2.240041
H  2.834205  1.290421  1.598766
H  0.726609  0.403660  2.090110
H  5.325081  3.968309  3.979015
H  0.809923  5.534182  2.757010
H  2.942131  1.557374  4.205479
H  1.005483  5.754801  5.950037
H  0.817607  1.480415  3.309492
H  5.414020  1.269276  4.615769
H  3.135941  0.411603  2.440485
H  4.805124  5.986616  3.239281
H  4.716048  5.158067  0.772992
H  3.558223  5.436660  4.119348
H  3.737891  4.844692  4.099211
H  5.160291  0.564958  1.681927
H  4.386111  4.684798  3.858580
H  2.782563  3.192908  4.374388
