 100
  
H  0.378331  3.154558  0.272038
H  4.330697  0.674266  0.326946
H  4.050007  5.056640  4.526438
H  5.186613  2.999186  1.574338
H  1.939105  1.650754  5.683140
H  3.579315  2.308751  3.666300
H  4.666825  5.984450  3.882671
H  1.457089  0.407626  4.728308
H  0.366214  3.861360  1.223678
H  4.514890  1.492926  5.825498
H  5.110871  1.817280  5.555705
H  3.066706  0.288514  0.044924
H  2.433469  0.741203  1.332548
H  2.108166  1.149914  1.213976
H  5.418271  4.088034  4.945894
H  3.776387  1.781088  3.444875
H  4.733405  4.886540  1.031951
H  4.134168  4.780585  3.565406
H  2.136766  4.852425  0.505014
H  5.850338  3.687444  5.377273
H  2.364987  5.272585  0.081073
H  1.071084  5.602374  1.415253
H  2.839943  0.165166  3.112576
H  4.764199  3.050865  2.267276
H  2.792233  1.945990  0.967891
H  3.547954  3.882964  1.880415
H  4.825178  0.501193  0.958613
H  1.609272  3.585395  4.074061
H  2.041125  2.253496  1.189701
H  3.389763  3.492333  0.818000
H  5.201826  3.870111  2.767676
H  3.320410  3.760243  2.348264
H  4.207540  4.017575  2.151062
H  0.217799  1.246882  2.629800
H  2.610985  5.722731  0.957111
H  3.421426  4.602526  3.422289
H  3.809066  2.585917  0.633795
H  3.913546  2.105214  1.080707
H  5.827480  3.953163  1.715694
H  3.340492  2.680667  2.122971
H  1.793717  0.853933  4.864686
H  5.057271  1.233285  1.942164
H  2.867873  3.192730  0.907168
H  3.829162  5.448425  5.548992
H  2.426891  4.292744  2.990269
H  0.283927  5.385873  3.619670
H  0.252503  3.270624  1.574515
H  1.440963  4.005626  4.516971
H  4.388975  5.489695  2.492452
H  1.221173  4.537790  2.500108
H  5.729121  4.602785  4.421747
H  2.957949  0.335435  1.430402
H  4.574568  4.747244  2.580304
H  1.031724  0.225385  3.910319
H  2.606931  5.182422  0.202300
H  4.642238  3.379410  0.854367
H  3.403774  5.231969  1.441109
H  3.408071  2.006883  3.735126
H  5.054685  5.630209  4.698928
H  4.053257  5.359913  0.152319
H  5.407791  3.712612  3.887601
H  2.044043  3.233222  0.132587
H  5.472973  3.411495  0.102227
H  1.883675  3.888312  1.502561
H  1.879806  4.843287  3.017550
H  4.191061  1.390365  1.354568
H  3.060388  3.945511  3.760921
H  4.968782  4.077212  0.779411
H  5.283172  2.512035  0.530518
H  3.515725  4.879377  5.505908
H  1.662675  1.498108  2.923022
H  0.500259  5.393896  5.527830
H  0.557037  0.842166  1.900271
H  5.838521  5.508488  1.059315
H  5.916376  1.979899  4.958319
H  3.146217  1.822618  1.523788
H  5.941342  3.294789  3.596050
H  1.714805  3.636206  4.728979
H  3.356683  4.413204  2.238737
H  5.944901  1.408641  0.316652
H  1.062969  0.211702  0.300450
H  0.601686  1.383608  0.799519
H  5.552602  2.940899  3.956289
H  1.729542  1.138173  0.670061
H  5.770465  4.289358  0.128118
H  0.988279  0.657813  0.322243
H  5.232310  1.060212  2.239259
H  0.915482  5.751000  3.633755
H  4.443202  2.599066  3.567309
H  1.216501  5.266231  1.432631
H  2.810096  2.897543  3.483403
H  1.873125  3.831284  3.325115
H  0.240856  3.801834  0.659671
H  2.088906  3.409647  0.177036
H  0.607015  3.436518  4.860539
H  0.877577  3.297276  0.764480
H  4.898696  2.191178  5.919287
H  4.827467  5.411856  4.012430
H  3.029293  1.989384  2.808708
H  0.066069  0.837413  2.102687
