 250
  
H  5.734183  1.716144  0.849933
H  1.370164  5.193730  0.946913
H  2.147840  5.761700  2.090023
H  4.478914  3.295540  0.543767
H  4.885800  2.830167  1.226342
H  1.971085  0.049117  3.977531
H  2.119409  5.097750  5.533596
H  0.713102  5.973845  2.985662
H  1.334676  5.609982  4.822313
H  0.065446  0.239043  0.199056
H  1.471383  4.559355  0.223051
H  1.337580  5.663639  0.912757
H  4.178001  2.183570  5.790634
H  2.055513  4.762339  1.751843
H  3.895511  5.162575  5.915112
H  1.544410  1.601487  4.159212
H  4.207419  5.261810  3.715092
H  3.511190  3.357276  0.189538
H  2.119306  3.196381  4.578762
H  3.892412  3.485025  1.267862
H  5.674756  5.102290  4.664753
H  2.927060  0.148075  0.116080
H  1.821760  2.295608  2.500836
H  2.612357  4.894008  3.944301
H  3.532875  3.908722  5.529549
H  4.242886  3.838133  1.058182
H  5.504581  4.700489  4.102180
H  0.165363  4.157255  1.446365
H  5.323506  0.837295  2.018730
H  5.762923  0.673397  5.781337
H  1.526170  4.547426  1.648091
H  4.234962  0.985502  5.973962
H  2.371787  5.649528  2.026516
H  4.871201  4.733712  3.963361
H  2.898258  2.172986  2.724725
H  4.413394  4.363760  2.238431
H  2.371300  0.195611  5.038987
H  3.847552  3.262244  5.468383
H  3.814160  5.135548  2.152080
H  2.521817  4.878637  3.571540
H  4.394597  3.928894  5.909682
H  3.002404  5.622316  1.309286
H  1.918897  3.641709  2.284593
H  1.986072  0.345928  2.569844
H  3.491181  1.158171  5.020139
H  5.203355  4.087328  2.562379
H  5.895709  1.870598  1.035283
H  0.699753  4.521298  5.377720
H  3.049724  0.995861  3.005620
H  5.059225  5.157668  4.480732
H  0.066415  2.931957  5.204846
H  5.554594  1.950261  3.473438
H  2.951422  1.696965  1.218925
H  3.487402  0.192774  2.918364
H  2.104265  0.512610  5.514738
H  2.496507  5.683946  2.361347
H  4.213371  0.838577  0.912923
H  4.625214  4.121543  5.340084
H  0.725819  0.381959  4.407393
H  4.644388  5.126849  5.846394
H  0.882777  2.345037  5.906357
H  5.515057  5.862134  2.494921
H  2.418394  0.688526  4.562972
H  1.231163  2.683160  2.726881
H  4.877806  3.725677  4.664757
H  3.355705  0.140101  1.973183
H  2.635521  5.299178  3.456398
H  0.801815  4.530493  3.360241
H  0.968999  0.009463  0.331320
H  0.863894  5.726180  3.057641
H  5.444858  2.401663  0.919233
H  1.167024  3.127447  1.994596
H  0.121533  3.121585  4.079904
H  0.501482  4.743046  0.893022
H  3.944724  1.205721  4.784939
H  4.573631  5.042241  3.003158
H  4.933066  0.125188  3.154003
H  5.458031  0.025650  1.420552
H  4.978622  4.359241  1.079151
H  4.027205  4.813497  4.827276
H  0.906869  2.858451  2.263364
H  1.076702  2.379752  2.888979
H  5.757352  5.608595  1.035980
H  5.496541  3.790087  5.563721
H  2.873439  5.950120  1.718818
H  0.207855  4.711606  0.338101
H  1.986713  5.080736  4.143271
H  4.887274  3.347786  3.314751
H  3.660288  2.655632  1.232730
H  4.277520  4.226194  1.132031
H  2.057619  2.025777  3.173590
H  3.025663  2.822611  5.314419
H  4.254964  4.319561  2.386974
H  0.237969  0.462087  0.835820
H  1.703607  0.471415  4.115220
H  4.985409  2.882587  5.583407
H  5.035911  2.592390  3.387991
H  1.576445  3.157189  3.543244
H  1.837590  0.930275  1.565769
H  1.171711  5.699027  4.049792
H  4.033597  4.506195  4.280665
H  1.005907  3.250689  0.724124
H  3.103834  0.527082  3.078160
H  0.758925  0.777759  2.291298
H  0.867862  0.407296  3.053728
H  2.705785  0.312091  5.927536
H  0.389646  2.095426  1.945025
H  3.717998  2.282796  0.774248
H  4.272316  3.918088  0.579092
H  5.419254  2.889919  0.286003
H  5.008069  5.520874  5.277814
H  5.678757  0.031447  4.763792
H  1.113208  3.471488  2.424246
H  5.825918  3.392974  2.992294
H  4.602802  2.910734  1.939588
H  1.069347  1.214031  3.787343
H  5.103864  4.648353  0.621812
H  5.302949  0.259881  3.220114
H  3.126883  4.534485  4.551366
H  2.588940  2.813503  4.789607
H  2.222832  4.693819  2.534468
H  3.879613  0.116338  1.329748
H  4.226745  0.856231  3.713985
H  5.901403  4.787565  1.083440
H  4.259810  4.292052  0.234186
H  4.562873  1.325684  0.467906
H  0.765006  2.578392  5.571911
H  0.612509  1.543653  3.999621
H  3.384062  5.107381  2.213962
H  3.709692  5.707335  1.563231
H  5.977570  0.909362  1.469453
H  3.931157  2.510420  1.382508
H  3.226718  3.746470  3.415965
H  4.447732  1.784384  3.653493
H  2.560585  2.614924  3.744485
H  3.039545  2.155854  4.531577
H  3.481630  5.102267  1.372660
H  0.789887  1.523323  1.858461
H  2.251343  5.309795  0.403034
H  4.959073  3.024956  1.499867
H  4.695858  3.541814  5.669916
H  0.187892  1.530087  2.831463
H  2.986003  0.137693  1.863004
H  5.515052  2.823706  2.697421
H  1.520605  4.950918  3.210546
H  2.887470  0.818679  0.433784
H  3.679145  0.200941  3.890537
H  3.160167  2.994278  3.636320
H  2.523427  1.663795  3.131003
H  5.906655  3.342830  4.371061
H  4.058892  3.705939  1.760052
H  3.615060  0.365301  0.036151
H  1.697151  0.402038  3.274181
H  1.457332  1.619645  4.319535
H  1.287076  3.699950  1.102101
H  4.536649  2.846693  5.549265
H  0.853700  4.626320  2.488463
H  2.979379  2.667542  5.624087
H  0.991021  3.954162  2.642522
H  0.606971  4.225524  3.782676
H  0.850506  2.361102  2.804572
H  4.719540  0.135515  1.484331
H  5.315946  1.545735  1.937440
H  3.266356  2.907511  0.996513
H  2.184815  3.440068  5.181578
H  2.541700  0.734563  3.508425
H  3.687561  0.632924  1.952392
H  1.762834  5.919085  2.564363
H  3.741951  2.293579  1.821655
H  2.357368  4.646700  1.782886
H  1.120570  0.310314  0.564167
H  1.106312  2.475843  2.055020
H  0.650299  3.184821  2.417712
H  1.906251  2.821602  4.307388
H  3.467312  3.499361  3.320938
H  3.332786  4.586285  0.573283
H  4.509951  2.988762  0.504928
H  3.244689  4.530046  1.249737
H  3.653121  0.331228  1.623278
H  0.892224  2.544661  3.480344
H  4.412809  2.419695  2.135739
H  0.270309  2.866245  0.224900
H  3.395826  5.668913  2.850348
H  2.518508  3.616146  0.241078
H  1.635294  5.984680  3.974033
H  5.559786  3.279692  1.380332
H  1.934541  2.267730  3.148206
H  3.189308  3.524409  2.030829
H  0.261497  2.508311  1.228103
H  5.437708  1.055442  4.329827
H  2.899201  3.297482  4.706715
H  1.051744  1.712079  3.941991
H  3.834698  0.725366  3.895167
H  0.805893  5.649555  1.670318
H  5.215159  3.280090  5.318024
H  5.246667  0.400150  0.310880
H  0.248787  0.120014  1.457164
H  2.838790  4.831547  5.781007
H  5.044156  5.856675  3.408467
H  4.708452  4.835892  2.890105
H  4.427836  3.544048  1.455201
H  5.070785  5.778360  1.081154
H  1.197405  2.226454  5.910121
H  3.602999  4.918106  5.383979
H  3.726110  5.313778  0.653352
H  3.803525  5.134835  2.234573
H  4.594793  3.458686  2.240382
H  1.015643  0.407436  0.108327
H  5.773273  3.789370  2.142477
H  3.707156  2.256325  5.660287
H  1.982179  1.902198  4.196024
H  1.577867  1.514649  4.789878
H  1.368226  5.280235  1.774642
H  5.234722  5.896687  4.924618
H  2.563655  4.039660  1.472874
H  0.498440  4.449915  0.662260
H  4.663410  5.647705  2.335291
H  0.673238  3.809162  3.476612
H  1.656187  0.971953  2.821765
H  4.082807  5.064637  2.335549
H  1.279328  4.943597  2.939508
H  5.448795  0.679130  4.529524
H  5.675035  3.060468  1.511572
H  2.062897  4.641750  4.827182
H  2.406622  0.372192  5.832311
H  5.439299  2.361265  2.777280
H  4.757895  1.498126  3.491811
H  3.939851  3.889247  2.985545
H  0.212841  2.831101  2.750528
H  0.546916  1.416360  0.124142
H  5.958479  5.809268  1.147529
H  1.608726  3.640162  1.272820
H  3.068403  4.495725  5.816601
H  4.603424  4.368387  4.162057
H  2.103631  4.644064  4.344830
H  5.756444  3.261423  2.046880
H  5.212846  0.926873  4.563695
H  1.978836  1.325935  5.413348
H  1.827465  2.493765  3.544220
H  3.756744  3.584238  5.579359
H  1.730873  0.593607  2.954933
H  0.510324  5.478090  1.331568
H  4.109768  4.546985  1.589899
H  0.612343  1.550932  5.562454
H  1.046561  0.248829  1.484923
H  4.067526  5.361754  4.603249
H  1.207378  5.029153  5.818360
H  1.716676  5.208453  4.815989
H  4.587720  0.447901  2.786790
H  3.170782  2.154907  4.937988
