 150
  
H  4.015589  5.263193  1.919738
H  0.638490  1.862830  3.137419
H  1.906769  4.208822  5.346445
H  4.597936  1.345255  1.268988
H  3.444038  1.154768  2.310846
H  3.068467  1.510146  4.024261
H  4.434257  2.154182  2.738996
H  0.254281  0.648826  1.475871
H  4.668660  0.361426  0.127645
H  4.389209  1.129047  0.631513
H  2.791135  4.674092  3.757674
H  3.317072  1.043273  4.686334
H  5.628295  0.552664  0.928193
H  0.356074  1.536062  4.655339
H  0.655960  5.933460  5.380890
H  2.885183  1.159270  3.675782
H  1.256838  5.903850  2.639905
H  2.253014  2.061802  1.769320
H  1.285276  1.859947  4.500021
H  2.703486  2.185116  0.064127
H  0.629835  1.951395  4.160972
H  3.707808  1.648006  5.121139
H  3.329540  5.388643  2.651936
H  0.211188  2.662883  4.709373
H  2.393069  2.675476  2.549170
H  0.331960  2.751064  0.529203
H  2.498577  4.511052  5.307531
H  2.700195  3.697032  5.318574
H  0.582329  0.582696  0.643069
H  3.274630  0.049882  2.216488
H  3.670593  3.405209  1.775278
H  1.640121  4.862491  2.126994
H  4.875042  3.435128  2.249001
H  0.019369  5.935268  5.198496
H  5.409592  3.126548  5.548130
H  4.154289  1.411309  0.782232
H  2.515572  4.825056  5.935275
H  0.574200  1.149408  5.401776
H  1.804561  5.217244  1.749538
H  2.324912  0.824056  1.278102
H  5.539392  4.848319  3.973434
H  3.000044  4.867524  0.135829
H  2.031079  4.341500  1.200471
H  2.471516  4.257327  4.483668
H  5.566329  3.503884  0.031582
H  0.534996  5.436106  0.554796
H  2.310808  4.252290  5.308973
H  3.002819  1.492425  5.197718
H  1.925836  3.262902  4.718738
H  2.224376  1.175986  3.422329
H  4.836975  1.902819  3.121507
H  2.614950  0.752506  3.634708
H  4.565513  2.121595  2.285895
H  5.244359  0.311746  3.996490
H  4.656811  1.305353  0.739947
H  1.948138  4.686952  3.327629
H  1.853851  5.250182  3.766078
H  5.449852  3.701743  4.997185
H  0.846993  2.967385  4.775968
H  1.362380  4.997609  0.217335
H  3.185868  0.646661  0.473432
H  3.857785  4.108036  1.391245
H  0.524825  0.059557  0.017664
H  1.458008  0.722627  0.432584
H  0.848822  4.282185  1.317049
H  1.353770  5.279769  0.687397
H  2.226354  0.471107  5.473223
H  2.020921  5.428831  2.974018
H  2.793271  4.084252  5.588237
H  3.183684  4.427812  3.239100
H  5.755069  1.437673  5.249265
H  2.960193  5.262815  3.854955
H  0.342551  1.203565  5.090427
H  5.841326  5.434202  2.049557
H  1.485879  4.951830  4.657508
H  5.437809  2.262817  5.670218
H  4.856370  4.879058  3.090600
H  4.561166  4.047659  1.147040
H  1.708707  5.736327  1.702778
H  4.113210  2.521352  0.252289
H  4.607120  4.755131  5.877158
H  1.368862  1.010874  2.648189
H  3.046913  3.179456  2.809011
H  2.125036  3.812394  5.893104
H  3.902196  0.982649  2.125723
H  5.966674  2.827006  5.310504
H  1.919110  4.074797  5.061993
H  0.223483  4.840019  3.356479
H  3.945697  1.567830  5.381014
H  4.008664  4.599110  0.247110
H  4.994077  3.367300  4.036514
H  2.283676  1.565544  2.743692
H  1.205773  5.960797  5.854087
H  1.965174  4.856088  3.930555
H  2.278254  3.173903  3.969677
H  1.763966  3.560867  3.785903
H  4.613176  0.703083  0.810706
H  2.888385  0.590713  5.529001
H  1.590060  2.086148  1.341712
H  3.852916  4.880127  5.403514
H  3.699331  2.979563  0.203038
H  2.496183  5.116814  0.834548
H  4.910831  4.810067  0.865115
H  3.893157  4.819621  1.057907
H  4.394664  3.877554  3.501813
H  3.567354  5.280457  5.027663
H  0.964849  4.109246  3.515331
H  5.180210  2.964096  5.200675
H  5.329313  2.874251  2.946931
H  4.832469  1.033935  0.364898
H  2.836090  3.592588  1.296887
H  3.993997  1.389167  4.833967
H  4.315623  1.723811  1.257180
H  5.952900  5.634719  1.923201
H  4.438228  3.616931  3.642340
H  1.860130  5.164266  0.739427
H  2.508803  5.704157  4.386529
H  0.206809  4.937150  4.187841
H  4.736458  1.412590  4.921795
H  5.290610  0.584669  2.712002
H  5.388704  0.596806  5.773490
H  5.438173  5.946987  4.687603
H  1.348549  4.125101  4.978843
H  2.138327  5.121439  0.033091
H  0.402218  0.230631  0.835802
H  5.771476  4.697920  3.278818
H  5.219105  2.193741  4.083002
H  4.622075  2.450063  0.811873
H  1.488680  4.763291  5.378000
H  0.896636  0.650871  0.126691
H  0.419986  5.627244  4.615737
H  2.843670  5.752019  2.325815
H  0.850546  5.553833  3.931639
H  0.049670  5.663295  3.076445
H  2.388239  2.084985  1.918398
H  3.032845  3.411867  0.828438
H  0.608968  2.852107  5.608170
H  3.460418  1.960250  0.365212
H  0.575678  1.077922  3.911247
H  4.579662  3.462529  0.837480
H  0.500986  0.839984  2.701283
H  2.206035  1.497079  2.703251
H  4.623988  3.410618  3.537071
H  5.633523  1.511296  0.927787
H  0.471560  2.269459  3.953043
H  2.415713  5.676710  1.521363
H  0.666664  5.328382  5.344310
H  4.569184  3.870479  5.316691
H  2.643790  5.108142  2.339790
H  3.378827  2.477825  2.347432
