 200
  
H  0.834533  2.986989  2.940534
H  1.458287  4.250058  3.520253
H  5.212504  4.638201  5.985687
H  0.014785  4.486222  4.096677
H  5.279283  3.111011  3.505093
H  3.289554  1.196760  3.636412
H  3.122488  4.944883  5.063281
H  2.124121  0.697685  5.060819
H  5.035372  2.737236  0.400440
H  5.003677  4.886745  1.607225
H  2.863887  0.549208  1.815573
H  2.882705  4.821729  2.232693
H  3.352761  4.619891  1.385369
H  1.101751  0.416057  3.212032
H  3.479990  0.250052  3.872490
H  4.305528  1.485768  3.324590
H  5.979175  0.940106  0.030968
H  1.555164  0.627316  1.374744
H  5.806077  5.007890  3.725274
H  4.091482  1.580736  2.171843
H  5.587588  2.669304  0.212706
H  0.716510  0.471763  1.230432
H  5.525910  1.886331  1.594127
H  1.322309  5.191386  4.258284
H  0.170509  3.149535  2.028256
H  1.452008  3.071178  3.786495
H  0.674814  3.753471  0.176626
H  2.405496  1.475921  4.459675
H  4.566771  5.275490  0.330248
H  5.482588  1.621810  0.717845
H  5.437889  4.522315  4.373577
H  4.316699  2.053204  4.112322
H  2.937583  3.216879  3.467691
H  3.296322  5.177132  3.253241
H  2.829006  1.037731  1.248617
H  3.734395  3.478390  2.002064
H  2.650150  1.514479  1.497024
H  2.977575  4.634792  1.737625
H  0.066142  1.230822  0.269381
H  2.993160  0.662492  4.212958
H  5.743132  3.652462  1.149364
H  5.295520  4.085363  2.677473
H  2.584873  0.672300  0.453271
H  1.367643  1.763334  4.100985
H  0.606633  1.696352  5.991358
H  5.175236  5.461665  2.407129
H  3.043398  1.792587  0.096852
H  4.329410  3.037043  4.268722
H  5.677109  3.283389  0.965983
H  0.707415  1.370168  4.872468
H  4.119141  0.053606  1.999455
H  3.708129  4.138290  2.614294
H  5.622775  4.694223  4.852206
H  3.209590  0.000721  3.424048
H  1.098232  2.945170  5.949986
H  1.272429  5.146267  0.502043
H  0.384198  0.438616  2.266206
H  3.399991  3.557284  1.712529
H  3.021430  1.551912  1.090669
H  4.745843  1.552661  1.942164
H  0.204282  4.796221  3.550705
H  0.497369  0.948889  5.438165
H  0.678936  3.452302  1.057265
H  2.876659  0.037230  0.523369
H  4.179704  0.515740  0.866587
H  3.623020  2.147168  3.488328
H  3.661533  0.346014  3.695603
H  3.668308  1.128526  4.847085
H  4.498818  5.383265  5.504685
H  2.515155  0.875934  2.788194
H  4.539731  2.798072  4.451367
H  1.793539  5.042078  1.179706
H  3.225794  4.617504  2.805094
H  2.297499  1.749057  5.681353
H  4.993829  0.033447  1.448587
H  1.143206  1.350202  3.873046
H  2.553070  5.793895  0.887392
H  4.777985  4.201364  0.168734
H  5.271467  1.242310  2.936547
H  4.974818  0.256190  2.998260
H  3.130600  3.291564  5.286191
H  3.747232  4.080590  5.373577
H  5.490870  1.757465  5.921391
H  2.060936  4.498688  0.144164
H  4.612419  5.276397  3.267207
H  3.455459  3.837948  4.510115
H  1.785000  0.673056  1.664331
H  3.268912  1.538342  4.792464
H  3.259594  0.671356  4.463259
H  1.710805  5.997170  1.121761
H  4.827812  0.520353  5.243513
H  3.615646  5.692239  5.525051
H  4.338668  0.450731  0.425465
H  5.437903  4.969637  2.501288
H  5.958751  3.850008  4.793850
H  2.914124  0.524003  2.865132
H  0.255197  3.392801  5.175911
H  2.986467  4.704378  4.658085
H  5.889447  4.642027  2.055410
H  5.574192  3.009282  2.433126
H  3.425985  1.460710  1.568359
H  2.681679  2.850120  4.255287
H  4.181929  5.103305  3.520153
H  0.069289  1.237251  1.209635
H  4.958588  4.966391  2.069966
H  5.811051  4.899972  0.905640
H  4.108502  5.626495  3.452058
H  5.070546  5.363998  5.445507
H  4.063967  2.063681  1.336625
H  1.302793  1.372372  4.234413
H  1.208294  0.063995  4.282995
H  4.500137  1.060934  5.300916
H  3.084340  4.123096  4.748697
H  4.665273  3.415618  0.695366
H  3.794396  1.833803  5.060529
H  5.922325  4.387815  5.320803
H  2.628755  4.670693  4.531320
H  4.096497  1.440802  1.349083
H  1.701734  2.672109  4.433952
H  3.408689  0.849298  1.471798
H  2.131048  5.511548  2.277526
H  4.399680  2.031901  5.525021
H  2.970786  1.924538  4.926920
H  2.525040  3.493820  3.796324
H  5.881032  4.160288  0.573361
H  2.662028  3.696598  0.136858
H  3.041067  3.323653  4.821764
H  5.844678  2.289790  3.882244
H  3.069840  2.164888  5.751306
H  5.260664  4.324995  4.459670
H  1.455630  1.620901  1.335926
H  3.258920  5.995630  5.759647
H  5.891694  0.531522  4.838442
H  1.691856  4.057653  3.132911
H  1.608404  2.752611  0.419752
H  0.022986  1.622464  2.285906
H  3.666112  3.656692  2.968739
H  2.826084  5.416006  2.718096
H  1.241768  2.529712  1.521053
H  4.952962  2.741177  4.493447
H  3.968729  4.236992  5.677295
H  1.567921  1.152972  2.905672
H  0.204949  2.586696  0.566016
H  1.418349  2.645932  0.410361
H  3.765439  1.845977  0.777549
H  1.652415  0.966260  4.011838
H  2.860382  1.063638  0.630260
H  2.965053  3.642546  5.316212
H  0.042384  2.783945  0.210469
H  0.967406  0.357754  2.681765
H  5.144285  4.080555  0.694992
H  0.458666  5.666377  1.310268
H  4.768669  3.418542  3.681321
H  1.484772  5.820825  1.585057
H  4.488937  3.952618  3.512417
H  3.799112  5.468894  5.339062
H  4.477362  3.727911  3.755527
H  0.784417  4.370542  5.667701
H  0.348194  5.334927  0.438518
H  1.158605  1.837420  3.627581
H  5.916329  3.069786  3.331056
H  0.453821  4.953238  5.213642
H  5.088520  4.916998  2.949927
H  1.127694  2.291225  0.390130
H  2.875627  1.971086  5.619324
H  4.643340  0.275974  0.176092
H  1.415116  2.305702  1.792272
H  0.924184  5.187006  5.976976
H  4.062897  3.354082  3.681427
H  4.707635  2.228857  2.641873
H  1.069037  0.906964  3.583686
H  5.517190  3.035360  0.265298
H  3.587521  4.087988  5.225387
H  5.968128  5.983564  1.931612
H  1.404332  2.751082  4.519352
H  1.933050  1.586586  1.603444
H  4.255537  2.848124  0.686321
H  0.356139  5.537897  2.891956
H  0.065997  4.449134  2.227363
H  2.467956  1.236093  4.754305
H  1.268791  4.230305  1.808815
H  1.142651  4.943253  2.367628
H  1.828932  2.697236  0.909238
H  0.465768  3.504078  4.179790
H  0.620653  5.618412  4.126610
H  3.166973  1.244210  4.820030
H  2.979796  4.022244  5.179781
H  5.537114  5.547999  0.342687
H  4.353033  3.694651  4.728261
H  3.629761  0.842749  2.839583
H  4.730229  0.186298  3.305070
H  5.482670  0.427386  2.792121
H  1.932286  0.082833  3.206503
H  5.449597  5.770105  1.504328
H  5.031282  1.861442  4.398882
H  2.452756  4.552467  0.811477
H  3.886256  4.897247  0.348423
H  1.294895  2.489432  0.235844
H  1.866282  4.688664  2.474177
H  4.114053  1.074496  0.035150
