 200
  
H  4.056300  4.409908  1.832956
H  3.001140  5.755159  0.312066
H  2.087827  5.467077  2.384296
H  0.732513  2.377494  3.718947
H  0.560229  2.512453  5.061377
H  3.750911  3.103660  2.305825
H  5.000582  5.929134  0.577049
H  1.586511  2.739595  1.565436
H  1.894205  0.587169  1.911973
H  2.039976  4.271121  2.755152
H  2.814935  1.088140  1.610700
H  3.395941  4.547186  5.971489
H  2.057162  3.910135  1.668121
H  4.604020  5.796368  5.538818
H  1.501295  0.586362  3.861255
H  4.642559  1.379273  1.770547
H  5.919471  0.280456  0.808392
H  0.481791  5.884233  4.576636
H  1.442986  2.839388  4.440297
H  5.962771  5.020486  3.518095
H  2.247739  5.048030  0.623459
H  2.583653  0.326987  5.500372
H  5.758200  1.672554  0.887912
H  4.012928  0.181161  0.400654
H  5.135034  3.478182  3.559966
H  0.064770  5.158093  2.308713
H  5.603911  1.951081  1.925941
H  4.332214  2.548667  3.194629
H  0.660446  1.082087  1.100492
H  4.378923  5.373342  1.524328
H  5.325548  4.114149  0.301028
H  0.759556  1.407971  2.017262
H  0.941609  3.876120  5.951883
H  3.146196  4.109669  4.937513
H  3.033425  1.181284  5.443220
H  1.397254  3.447798  2.387238
H  5.541022  4.445454  5.242518
H  4.383488  5.996835  2.316598
H  0.390398  2.222163  2.706247
H  1.396344  1.755601  0.682294
H  0.476428  5.212077  5.384778
H  2.625339  2.132156  3.087288
H  0.204688  4.328552  1.381174
H  1.108734  0.755711  0.096431
H  2.072308  1.373061  0.008471
H  2.295441  4.751412  4.209437
H  3.569443  0.085468  1.288227
H  5.356205  5.160384  5.958934
H  4.497979  5.160463  3.693059
H  5.565247  3.003444  2.360705
H  1.295365  3.658839  1.028996
H  3.677458  5.534617  5.528960
H  4.188730  5.164734  0.442909
H  3.878705  1.331864  0.927468
H  2.679907  1.903379  4.526523
H  4.727482  2.864012  4.303682
H  4.503581  0.154226  3.453374
H  2.668227  5.694202  3.639007
H  4.294939  2.397048  5.059248
H  5.155164  5.451667  2.802703
H  5.136571  1.671623  5.947880
H  4.175586  1.329868  5.924123
H  5.746118  2.699900  4.319467
H  3.760581  1.551563  4.721948
H  4.527477  4.493064  5.694008
H  5.146597  0.711607  2.532991
H  5.978329  4.047563  2.418472
H  1.468474  4.993050  5.877823
H  5.973634  0.172410  5.652440
H  2.561999  5.726150  1.498957
H  2.538147  2.173966  1.007558
H  3.475021  1.601357  3.571181
H  0.790608  5.764425  3.508230
H  1.671674  1.685991  1.643307
H  2.199466  3.181329  0.763368
H  3.411019  5.269020  1.928358
H  1.093276  0.571151  2.743565
H  0.044691  3.350415  5.398293
H  2.722014  3.604050  5.831008
H  0.402456  4.644214  4.491088
H  4.264799  4.075188  3.824276
H  1.151201  4.376597  1.900285
H  4.580182  2.465503  2.091844
H  0.896077  4.655825  2.769367
H  1.511320  3.323822  3.566477
H  2.239867  0.041735  4.531605
H  1.536404  5.880974  5.248928
H  1.276133  2.806108  0.278661
H  1.141033  4.091137  4.930847
H  4.129831  1.020925  3.036268
H  2.100802  0.273921  2.954727
H  2.638636  2.974841  4.914557
H  3.646924  5.905579  4.263221
H  0.844140  0.722701  5.081509
H  5.427969  5.862603  3.842418
H  4.259382  4.867779  2.775685
H  5.028932  0.662380  5.553525
H  5.204929  0.937872  3.543765
H  0.159117  1.130380  0.044353
H  3.045852  0.099558  2.421228
H  1.685436  2.496058  2.831334
H  4.877121  3.220463  5.379073
H  3.351241  2.834178  3.263295
H  3.776155  0.868103  2.014089
H  1.014316  1.666944  5.589179
H  4.364724  3.951724  4.825763
H  3.266092  0.501930  3.418567
H  4.199948  3.503927  0.214669
H  0.603537  3.438854  4.315021
H  3.113954  3.913316  2.060287
H  2.194399  4.420393  5.195348
H  0.034638  1.717105  3.948844
H  0.045856  3.954122  3.562092
H  3.667366  3.250282  5.238650
H  2.585908  3.877755  3.589240
H  4.830097  1.701999  2.777543
H  1.061724  1.524628  3.270954
H  5.270088  4.624033  4.268890
H  2.955298  1.229744  2.630639
H  4.489323  4.236564  0.871610
H  3.201203  1.804393  0.347875
H  5.612153  0.918138  1.588868
H  5.291793  4.991463  1.021238
H  3.600883  2.470506  4.267673
H  1.859266  1.512083  2.698425
H  5.135584  4.755698  2.023585
H  4.651024  1.778958  4.044223
H  0.993489  1.472045  4.383281
H  3.751058  1.900590  2.626149
H  0.088727  1.124198  2.918778
H  3.818526  2.344886  1.367879
H  2.503452  2.120399  2.038478
H  5.644764  2.724157  1.260433
H  0.486064  3.188276  1.776894
H  4.645102  0.184222  4.469868
H  2.573730  4.724970  1.773137
H  4.135262  2.392700  0.056954
H  3.015568  4.781484  2.829324
H  1.784173  1.959676  3.844708
H  3.106338  0.693663  4.484295
H  0.426114  0.402208  1.886119
H  3.904199  0.498448  5.177524
H  5.363118  2.359496  5.282970
H  0.282608  3.394736  0.662248
H  3.306082  2.309874  5.379501
H  5.502779  2.551844  3.242244
H  4.140660  0.872849  4.117604
H  1.690185  5.201549  3.259723
H  4.574762  3.054408  1.147199
H  1.108879  5.633498  2.378729
H  1.964912  0.892956  0.963914
H  2.525319  2.783263  3.934865
H  1.833366  0.026243  0.280048
H  0.221451  4.664161  0.314086
H  1.137621  0.068481  1.224512
H  5.526424  5.556234  4.974337
H  4.363464  5.043419  4.820257
H  4.756380  1.436145  4.976238
H  5.487216  3.653287  4.554298
H  2.464322  5.337176  5.485260
H  2.881707  4.052275  0.786553
H  3.699064  3.583278  1.213989
H  2.450024  1.127679  3.643946
H  4.620886  3.636088  2.521583
H  3.668561  3.919965  2.979529
H  1.337652  4.412512  3.844376
H  5.301758  3.874330  1.519825
H  2.394267  2.450695  5.920915
H  2.888457  3.003749  1.630576
H  0.090840  1.595353  5.082720
H  5.362822  2.927642  0.333912
H  5.124276  4.493686  3.124488
H  1.898295  4.087750  0.207904
H  2.419033  3.213192  2.566488
H  0.487922  3.182737  2.921088
H  1.902246  1.030385  4.942888
H  4.811562  1.996392  0.930832
H  0.004061  0.085010  2.897933
H  1.711943  3.190762  5.399093
H  5.693780  0.656843  4.677562
H  5.413150  5.882725  1.771002
H  0.188979  2.338900  0.069751
H  3.247709  2.918569  0.439274
H  1.367294  5.422276  4.311392
H  3.186614  5.122422  4.724817
H  3.418951  4.812738  1.066404
H  1.664388  5.243318  1.521990
H  5.005977  0.941472  0.639115
H  0.742853  5.784835  0.239409
H  2.909824  0.763093  0.509847
H  0.333913  5.353809  1.209932
H  1.114763  4.657702  0.832642
H  1.997799  3.694418  4.522646
H  0.387423  0.746460  3.795081
H  0.607995  2.367564  1.091987
H  4.544987  0.412287  1.391772
H  1.842498  2.091847  5.097044
H  3.481661  3.540494  4.107440
H  3.354499  4.581530  3.867463
H  3.692439  5.589479  3.149292
