 300
  
H  4.685818  5.037849  3.988895
H  2.329096  4.027776  0.075551
H  2.760885  0.449724  2.178684
H  4.869094  0.984818  4.410354
H  3.109391  4.133660  4.735844
H  3.755729  1.473897  2.115089
H  3.326153  3.141325  4.946933
H  4.414625  5.375914  4.818737
H  4.355727  2.104538  1.272658
H  2.438597  1.763424  5.234203
H  2.714797  0.178638  1.215143
H  0.396654  5.608224  2.361656
H  1.291329  3.892957  4.342224
H  5.210801  1.315088  0.229095
H  3.204792  0.959286  3.563318
H  4.245355  5.612450  0.654466
H  1.366057  4.166195  5.794872
H  5.649221  4.572727  5.702030
H  2.316723  2.631526  3.866347
H  3.997235  2.550009  4.479197
H  3.894803  5.709474  2.625343
H  1.135481  2.971805  2.293009
H  3.862116  0.385237  1.886068
H  4.661738  0.243174  1.331486
H  4.209011  5.430337  5.722315
H  4.343954  4.317970  3.471039
H  0.979474  0.092728  2.907749
H  4.229386  1.380886  2.983905
H  0.803694  2.492441  3.686783
H  5.569142  5.452918  2.712716
H  1.287918  0.740825  0.141539
H  1.971218  2.638504  0.782677
H  5.742094  3.306503  4.735928
H  0.251206  2.566523  2.086632
H  0.048409  1.110896  3.352242
H  2.284778  4.381769  4.236800
H  4.157241  3.121318  1.288998
H  3.804202  4.598378  4.192429
H  5.976354  0.894491  5.089358
H  0.340100  1.362628  4.312921
H  2.696317  2.129913  0.405155
H  2.088943  0.937843  4.885271
H  4.706522  3.199978  4.550434
H  0.182713  1.167745  5.975274
H  4.536134  0.617529  0.490908
H  3.608968  4.775944  2.234374
H  0.861949  5.021687  5.692871
H  2.897277  2.510185  5.546450
H  4.350274  2.642056  0.437726
H  3.495924  1.884008  5.123563
H  1.458051  5.736535  0.075354
H  4.865628  4.881629  0.429358
H  0.823406  3.600419  0.660503
H  1.709730  3.819195  0.919888
H  2.238277  5.070480  3.291539
H  4.958004  1.390375  1.191954
H  1.558196  2.811766  3.138836
H  4.827761  2.715749  1.793989
H  4.872290  2.124353  3.206583
H  3.291318  1.722795  2.948286
H  3.721115  3.484680  3.239414
H  3.954080  4.424770  0.015158
H  4.121451  1.121724  1.308124
H  3.272046  2.916330  3.927728
H  1.305374  3.793905  1.843463
H  4.431822  4.625348  1.704123
H  0.148380  1.635622  2.557674
H  2.317580  5.315654  1.651264
H  5.064467  5.377704  1.284670
H  2.998028  3.832852  3.803633
H  3.187694  0.979053  1.484777
H  3.876102  4.730693  0.914326
H  5.848401  4.057731  1.915092
H  2.087622  2.619889  4.957040
H  0.946215  2.162363  2.757893
H  0.543692  4.085383  5.138146
H  0.723959  4.401994  3.293069
H  5.148404  5.794014  0.419454
H  2.681902  4.778370  2.390231
H  1.728390  1.040356  3.439374
H  1.566608  0.261931  5.274655
H  5.217080  1.319585  2.847626
H  3.892279  5.228526  3.461593
H  3.380733  2.613160  2.991132
H  0.062031  3.034750  3.923444
H  5.570960  1.106631  1.873735
H  5.360390  2.973295  3.261892
H  3.939427  1.170028  4.606910
H  4.717380  4.614243  5.399837
H  2.989507  1.412788  5.902828
H  2.438846  3.418234  4.476147
H  3.030649  3.744234  2.366928
H  4.713943  1.770604  2.044748
H  1.274993  1.157242  1.842080
H  2.721245  0.267328  3.077120
H  2.708925  2.456913  1.349865
H  5.933791  5.927504  5.063152
H  0.673686  5.393880  0.566747
H  1.509414  4.666689  1.560945
H  5.480505  0.590674  0.922466
H  1.654864  1.039112  1.000621
H  0.260416  0.577726  1.441465
H  1.959576  2.498603  2.079173
H  4.394580  1.760922  3.918459
H  4.586525  3.425690  3.620837
H  3.656013  0.314178  0.987523
H  1.015904  5.705384  3.835859
H  1.767835  4.587732  2.504185
H  1.011209  5.551503  4.872418
H  1.182625  4.603571  0.611523
H  4.232150  2.827208  5.388698
H  5.912763  5.032595  1.756094
H  2.653849  3.080443  0.290379
H  5.371538  3.800569  3.969816
H  0.545552  4.395229  1.281982
H  0.366535  2.942305  2.957063
H  0.221538  2.093026  0.325582
H  5.206035  4.002031  0.265910
H  5.168317  4.629446  2.258717
H  3.006436  4.806535  3.831321
H  1.977161  1.854948  1.338711
H  2.623085  1.110567  0.761075
H  5.858367  3.656091  5.657810
H  2.258962  4.117335  1.790295
H  3.415641  4.377929  3.062319
H  5.101946  0.573672  3.562210
H  1.225908  2.938498  1.272613
H  4.666420  0.837890  2.094022
H  0.407728  4.231804  0.130493
H  4.349834  1.606125  0.493603
H  5.177871  2.450565  4.093465
H  1.170789  0.213728  1.002945
H  3.412386  1.789863  1.011753
H  2.198888  4.264422  5.174776
H  4.706929  4.226197  4.496958
H  3.782384  3.980510  1.619424
H  1.867695  0.192936  1.622687
H  0.122328  2.743462  5.500609
H  5.222580  2.563419  5.044098
H  2.762004  4.907066  5.606729
H  0.678978  0.185360  5.597339
H  1.531147  2.936862  4.227973
H  2.857945  2.840758  2.227531
H  1.587619  0.228332  4.340729
H  2.782538  1.854147  2.067326
H  0.646051  0.392944  4.614340
H  2.502624  3.340768  5.418031
H  1.831809  5.979812  3.392863
H  1.132365  2.105006  1.807219
H  2.689816  5.709719  3.957729
H  4.683757  2.014828  5.727653
H  4.426838  5.970005  4.032319
H  5.675041  3.037856  1.440759
H  0.208857  5.513691  4.263957
H  5.563271  3.246672  2.379457
H  2.848681  2.306832  4.563121
H  0.477495  3.452621  1.578904
H  3.575289  5.501378  4.386493
H  3.361903  5.410583  0.104954
H  1.574125  4.482893  3.621571
H  0.428085  1.521908  1.665118
H  4.511349  4.021457  0.918092
H  1.708315  3.319944  0.104032
H  3.796790  3.163520  2.307001
H  3.598780  0.097720  3.485939
H  0.758123  1.165778  0.865598
H  4.055267  0.297776  4.929494
H  3.597592  2.380311  1.785175
H  1.374717  3.812278  2.799051
H  0.373620  0.322780  0.452809
H  1.909404  2.390316  5.855724
H  2.505650  5.444857  0.545490
H  0.915443  1.018750  5.278910
H  4.399555  0.464342  2.906775
H  1.010472  2.669576  0.332561
H  0.837335  0.639837  3.674214
H  0.014735  3.739161  3.265550
H  2.663657  3.185751  3.177513
H  2.429352  0.083264  4.806247
H  5.085408  0.125996  4.783969
H  2.662756  3.793363  0.895594
H  3.626918  1.058412  0.444262
H  3.804785  0.269553  5.919142
H  3.432025  2.747655  0.755698
H  1.825975  5.281762  4.170651
H  0.977126  1.069282  2.734025
H  5.384112  5.717641  3.884038
H  1.532983  1.700514  5.238514
H  2.185423  4.651182  0.867981
H  3.691115  4.841491  5.137215
H  0.995680  1.641373  0.049593
H  3.281641  0.409178  4.378826
H  1.898712  5.277332  5.133037
H  3.517177  3.127975  5.929246
H  3.466565  0.755917  2.696927
H  0.328491  3.914127  4.166543
H  5.633411  1.919288  5.623289
H  2.948947  1.332503  4.495618
H  2.996117  4.588357  1.426926
H  3.898973  3.587512  4.235167
H  5.232997  4.422618  1.278549
H  4.038396  5.456028  1.611614
H  0.947656  0.286900  1.956923
H  0.022552  0.196532  3.320793
H  0.357056  5.274324  3.308727
H  3.296555  5.433651  1.025550
H  3.247699  5.741076  5.227329
H  4.042922  1.183144  5.609856
H  3.599380  3.738032  0.656659
H  5.036779  3.264601  0.818654
H  2.380745  0.652237  3.976611
H  2.028652  1.826941  4.384016
H  1.053750  2.069580  4.504017
H  0.784749  3.379689  5.724085
H  5.859516  4.858166  0.624422
H  5.885389  1.462376  0.884886
H  5.185885  2.899666  5.918641
H  3.065732  5.376333  2.979371
H  0.216185  4.986526  5.069061
H  3.134511  5.628161  1.970926
H  4.744174  5.641311  3.190851
H  0.804098  4.782567  4.161700
H  2.432240  4.140138  3.077473
H  0.470167  1.814834  5.253139
H  1.935105  3.610820  3.702932
H  2.799605  5.070615  4.706790
H  0.755020  5.367923  1.481021
H  5.906784  3.868450  0.894744
H  4.189546  4.005528  2.518296
H  2.534879  1.214405  2.751106
H  5.827689  4.657681  3.957073
H  0.428687  2.465209  1.184408
H  5.341452  1.524164  3.763054
H  1.833636  0.560564  2.531473
H  1.207361  1.970725  0.891188
H  5.632169  0.437777  5.858224
H  3.663093  2.102251  0.029237
H  4.182414  0.861832  3.760382
H  0.853775  1.547681  3.548345
H  5.993215  5.515265  5.939576
H  3.050587  4.559667  0.430154
H  5.821845  0.580142  4.190297
H  1.925398  1.548155  0.189086
H  3.165786  3.278402  1.480683
H  3.167072  0.763291  5.273326
H  4.993682  1.066700  5.334070
H  5.519029  0.092423  1.818616
H  4.138961  2.617732  3.514226
H  4.128367  2.203323  2.602686
H  3.439015  1.934721  3.921375
H  4.393695  3.495478  0.105618
H  5.182932  5.416136  5.536845
H  2.001131  0.298236  0.552166
H  1.367277  4.580724  4.930204
H  5.513292  1.683888  4.657974
H  1.615411  5.417600  0.967080
H  0.925366  3.446735  3.572334
H  1.750282  1.639533  2.547875
H  0.011709  3.075836  0.442340
H  5.374861  5.105939  4.650304
H  5.306545  0.369246  2.643341
H  1.571312  3.481697  5.116616
H  2.961188  0.301754  0.247831
H  3.143444  4.008527  5.661876
H  4.794064  5.629275  2.195925
H  2.239990  5.679849  2.558974
H  5.999535  4.546429  2.773943
H  2.412337  2.308961  2.892738
H  0.693488  3.168971  4.685562
H  2.568945  1.679448  3.636238
H  5.937141  5.763359  1.054098
H  1.414305  5.491668  2.133342
H  1.923245  4.897830  0.015715
H  4.587265  1.875225  4.826829
H  4.940541  3.668644  5.340862
H  0.182326  0.595837  2.433246
H  0.475844  3.709643  2.468197
H  1.645537  2.005076  3.529667
H  0.807643  4.621025  2.204962
H  1.116723  2.579201  5.330419
H  5.305606  2.278655  0.717400
H  4.392473  4.883647  2.707782
H  5.637016  4.175668  4.841509
H  5.053409  3.861644  2.935522
H  2.416266  5.847773  5.705186
H  4.671191  0.208816  5.635498
H  5.570222  2.041742  1.610987
H  5.925132  2.149994  3.381128
H  4.018937  3.854232  5.179872
H  0.152164  2.389329  4.573547
H  4.794344  3.706470  1.819220
H  4.601089  3.055934  2.718249
H  2.170692  3.196190  1.529417
H  2.283685  0.817177  5.766968
H  2.253393  1.084003  1.762745
H  2.082594  3.377218  2.445965
H  1.321607  1.157105  4.340651
H  5.221335  4.713247  3.266175
H  1.296948  5.212716  3.045500
H  5.433969  2.347016  2.482598
