 100
  
H  3.087938  5.428903  0.589403
H  1.649552  0.566740  4.704298
H  5.054557  0.470668  2.042500
H  2.726524  1.196813  1.173441
H  3.677473  0.341501  5.840268
H  0.268673  5.944231  1.061061
H  4.964588  0.533357  4.113665
H  0.347287  0.940885  3.277744
H  4.501183  1.602178  3.808243
H  4.039968  0.248779  3.760208
H  4.803240  5.764064  3.036806
H  0.851718  5.721927  4.929928
H  3.675544  5.355438  3.073365
H  0.865395  1.411316  4.155653
H  4.772521  0.453478  1.024197
H  1.969059  1.451937  4.146025
H  2.496138  5.435266  2.994606
H  3.274696  1.343042  5.564249
H  4.303896  1.171304  1.678785
H  5.641776  1.416419  3.762444
H  0.918495  2.581012  4.191097
H  2.155993  2.193505  1.422527
H  4.868588  0.151666  0.044561
H  2.569280  5.020988  1.395737
H  1.993137  5.468727  0.510955
H  0.346629  0.561461  0.161961
H  1.209881  1.108356  0.261877
H  0.029884  5.677029  5.728717
H  3.232629  0.305410  2.970800
H  1.183640  1.676681  5.213012
H  5.476520  0.939762  0.494848
H  4.008404  2.028415  4.824540
H  3.552660  5.742748  4.861272
H  4.977399  1.305485  4.832232
H  5.753764  2.105087  0.771798
H  4.832776  5.334518  4.181882
H  3.027913  0.344780  4.054810
H  0.103174  1.988210  1.801198
H  3.519567  1.263363  3.477726
H  5.953282  1.860275  4.778561
H  4.927648  2.371074  4.361958
H  5.336657  0.728351  3.049145
H  3.636573  1.077064  0.613137
H  4.315386  0.910694  2.768758
H  4.729153  1.606366  0.719789
H  4.606096  0.037621  4.989281
H  0.912670  0.246137  3.922829
H  0.649708  5.307951  1.861304
H  2.310310  1.298511  2.161208
H  3.568221  1.910170  1.521967
H  1.923120  0.337261  3.692960
H  1.370132  0.226552  0.976301
H  0.911948  5.406547  0.343178
H  2.973458  1.462011  4.444950
H  5.537071  0.632918  5.445466
H  1.693177  5.580663  1.929444
H  1.634539  5.084500  5.577356
H  0.563218  1.971260  3.248788
H  0.605783  0.820520  5.128714
H  5.384351  1.311910  1.488152
H  3.934923  2.350628  5.823705
H  4.814174  2.321122  1.587057
H  1.434761  1.047162  3.068870
H  3.103152  2.080276  0.502739
H  2.240568  0.303100  2.424780
H  1.817720  2.008854  0.368611
H  1.128526  0.568270  2.080842
H  1.429320  5.370068  3.927026
H  0.013440  0.671887  4.332185
H  5.331603  1.771675  5.769031
H  0.482432  1.037658  1.189119
H  1.275860  5.890774  2.947904
H  5.686166  5.712809  4.688687
H  5.966093  5.884182  2.501886
H  4.506981  1.064803  5.768734
H  2.365099  0.284549  1.384675
H  3.341985  0.843726  2.139333
H  3.372950  2.020977  2.537993
H  1.536096  0.174206  5.794825
H  0.342334  1.637350  5.842135
H  2.410340  1.157481  3.254044
H  1.079651  1.985838  1.080211
H  2.900904  2.080175  3.517376
H  2.789856  0.410873  5.315409
H  4.670209  5.509733  1.508572
H  4.144758  5.993501  2.237431
H  3.758135  0.837098  4.792988
H  3.701126  0.238579  1.176534
H  5.444213  1.662687  2.581852
H  5.891445  5.933719  3.547623
H  2.112255  1.128819  5.722878
H  3.085435  5.745269  2.014929
H  2.685421  5.354550  5.649278
H  4.449061  1.916720  2.829567
H  1.624824  1.161588  1.318192
H  0.113179  0.927634  2.233609
H  2.642676  0.404074  0.370596
H  2.286620  5.621821  4.756306
H  1.178668  1.817510  2.230540
H  1.812667  2.051027  3.144525
