 250
  
H  4.465208  3.984102  1.826024
H  1.097010  3.506524  1.040701
H  4.143852  0.338009  2.869254
H  2.358641  5.405758  2.674229
H  0.663455  4.078620  2.528291
H  5.765943  0.647971  5.411733
H  4.261154  1.683858  1.804442
H  4.818356  0.844026  5.810060
H  0.424087  4.914502  2.007474
H  2.377410  5.242465  4.643267
H  4.793965  4.827917  3.825617
H  1.201670  4.122302  3.492533
H  0.995538  5.415579  1.379591
H  5.617819  0.462542  4.025790
H  2.934566  5.859742  5.300844
H  1.439428  1.419074  5.888343
H  0.269161  5.877885  5.874751
H  0.530469  5.417480  2.908688
H  4.794787  5.913480  5.429096
H  4.754396  2.356992  1.148485
H  2.736891  3.420660  2.465143
H  5.556961  5.524326  1.695611
H  0.119582  3.014131  2.337250
H  5.725294  3.472560  5.761406
H  5.502998  1.103781  0.579446
H  5.843888  1.034380  2.378742
H  5.114502  1.743722  3.171853
H  2.843789  4.577879  1.059219
H  5.783297  5.787381  4.887250
H  3.138738  5.752913  4.321590
H  4.484460  3.242042  2.935796
H  5.569210  5.211768  2.728272
H  1.605773  1.965099  4.979338
H  0.996131  2.573286  0.549453
H  1.628938  2.584254  1.460615
H  4.561524  5.016780  4.963922
H  3.472477  1.185517  1.518081
H  0.808930  5.032313  5.424218
H  3.580122  3.790415  4.515509
H  2.611101  1.185397  2.183004
H  0.843006  5.813229  4.755250
H  2.532384  2.124393  2.706390
H  1.251890  4.441666  1.788361
H  2.029828  3.585834  3.535471
H  5.435961  4.335938  0.376604
H  0.898451  2.422165  5.551397
H  2.999855  4.993726  3.622245
H  3.750952  1.130509  2.477752
H  4.868498  4.879807  2.059888
H  5.407763  4.849482  4.657008
H  2.822104  3.527028  1.030284
H  4.578691  4.092996  4.553062
H  4.571410  4.940090  0.024826
H  1.538836  1.690629  3.990889
H  1.127035  3.176792  3.938650
H  0.815956  1.287050  2.202459
H  0.469314  3.297618  5.018389
H  5.364376  3.429810  4.841923
H  1.762386  1.989139  0.730798
H  3.323404  0.452670  3.487091
H  1.748696  3.855968  2.514394
H  1.975712  3.471760  1.595143
H  3.241754  2.513691  4.368709
H  3.155162  0.691977  4.800199
H  1.867091  2.579618  5.791546
H  5.067720  2.979776  0.370733
H  0.477619  2.732762  1.385409
H  4.926266  4.195204  3.028173
H  5.850741  3.023736  4.035673
H  4.790924  1.185472  2.457985
H  3.294162  1.666895  5.102426
H  3.442067  3.101559  5.209402
H  5.162959  2.556064  5.432246
H  5.577151  5.162129  5.647683
H  3.747654  4.812416  4.431260
H  4.278655  5.896700  0.382633
H  0.333921  4.984294  4.494869
H  3.380068  5.594261  2.908854
H  3.771077  4.024759  1.039721
H  2.170424  1.063606  0.505101
H  0.959931  3.351966  1.966526
H  2.343170  0.147340  1.915966
H  3.853522  4.888893  1.555129
H  4.900161  3.390157  3.856081
H  1.030439  4.092187  5.107428
H  4.251644  3.208752  1.136326
H  3.305131  1.951678  2.115197
H  5.146239  3.680616  1.082688
H  2.591580  1.710493  1.287201
H  4.150136  2.290023  5.333559
H  3.879697  0.353534  5.597513
H  3.337824  0.274733  2.144492
H  2.745925  2.894924  3.433979
H  2.543615  1.949834  3.816840
H  4.161273  2.519403  0.295338
H  1.463338  3.073504  4.933186
H  2.645554  3.314739  4.317461
H  1.807962  5.203587  0.555337
H  3.721054  0.723999  0.593316
H  1.836301  4.297866  1.033143
H  0.925089  2.427750  2.373079
H  4.193533  1.594541  0.807653
H  5.130146  2.174055  2.245765
H  3.433105  3.237820  1.765147
H  4.322645  2.761711  2.024743
H  2.386787  4.417983  2.981826
H  4.099264  1.283977  3.392636
H  4.684821  4.673602  1.035695
H  0.942762  1.860455  1.329730
H  1.968389  1.421167  3.045936
H  5.538691  4.111218  4.021583
H  4.247718  0.574133  1.753753
H  4.372234  3.285474  5.559256
H  3.781198  3.829143  2.598474
H  5.987163  2.345833  4.945114
H  3.556261  2.158285  3.505512
H  5.521457  2.843161  1.542222
H  0.815235  3.417729  5.912931
H  0.936339  5.034316  3.696917
H  0.306663  1.116900  1.318567
H  0.875270  2.435754  4.537506
H  5.990287  4.180439  5.023202
H  4.814236  5.717987  3.244698
H  0.301727  4.299969  5.948166
H  4.040671  5.947884  4.720207
H  1.923100  2.818618  2.377644
H  4.138779  5.546034  2.158027
H  5.705269  5.379759  3.759600
H  3.032055  5.322815  1.969538
H  4.933919  1.396564  4.079812
H  3.333336  1.309220  4.095963
H  2.706786  5.583689  0.995360
H  1.766006  3.939335  4.499027
H  5.169262  3.526560  2.287227
H  2.555569  0.421046  2.824107
H  0.004262  1.962558  1.801328
H  5.756636  1.626913  5.688309
H  0.657917  2.426226  3.382747
H  3.764520  5.338046  5.514554
H  0.912630  1.515994  3.081263
H  3.262452  1.645820  0.548850
H  1.755350  3.602087  5.672229
H  0.004275  1.122372  3.413925
H  0.064437  2.598541  0.118849
H  3.232273  4.187638  1.853255
H  4.997428  4.157084  5.445772
H  5.732909  2.013389  3.855913
H  4.272142  3.021894  4.536088
H  3.997020  1.389453  5.826764
H  4.377080  3.926701  0.255195
H  2.329890  0.133212  0.214689
H  2.707788  3.823028  5.142419
H  3.731936  5.047092  0.542264
H  2.319887  4.419886  1.940651
H  1.298561  5.637242  2.230783
H  2.402295  5.770253  3.671407
H  1.659393  2.441685  3.306059
H  3.794542  3.173154  3.671118
H  1.705982  5.707303  5.420324
H  0.527125  0.639211  4.602164
H  1.542679  5.841326  3.181249
H  4.184376  4.892874  2.883602
H  5.021447  0.611596  4.781592
H  1.964587  4.887354  3.749449
H  2.545735  2.554076  5.052300
H  3.283086  4.198803  0.041842
H  2.824127  0.542728  1.082134
H  1.344815  0.749294  3.729704
H  3.676536  5.864606  1.274569
H  5.455947  2.791230  3.171733
H  1.855010  1.044819  1.541432
H  5.795194  0.206804  2.964491
H  3.038248  4.712886  5.145819
H  5.798143  1.312461  4.659978
H  0.548050  1.709716  0.394968
H  4.915324  5.720004  4.374470
H  5.671853  4.312285  2.379885
H  2.989450  0.864219  5.887910
H  2.260850  0.249197  4.619965
H  1.983871  4.581988  5.415288
H  5.359390  0.100654  0.279644
H  0.548063  4.443404  0.917177
H  3.508367  2.808658  2.674933
H  0.773722  5.228131  0.409331
H  4.992985  0.717546  3.287125
H  2.442670  0.901915  3.830174
H  3.611820  2.395472  1.152594
H  1.713597  1.835677  2.081549
H  5.230227  1.428378  1.527741
H  2.606889  2.544794  0.639929
H  5.456638  0.520172  1.491671
H  1.385150  4.879646  4.584757
H  0.582971  3.966579  4.246039
H  2.397918  1.423681  4.729110
H  4.653630  0.617239  0.886115
H  0.581433  1.520145  4.120230
H  1.428686  4.847420  2.854763
H  0.336691  0.096964  0.971621
H  0.155458  4.574883  3.361148
H  2.627763  2.657320  1.738972
H  1.943482  2.614901  4.271066
H  3.286943  5.869288  0.257337
H  5.008630  0.105970  2.349567
H  3.298844  2.324854  5.834784
H  1.590292  5.765773  4.169148
H  0.128542  3.793839  1.652335
H  4.077750  4.117445  3.659707
H  4.111357  1.986563  4.381273
H  0.010695  2.044955  2.784139
H  1.927030  3.219783  0.578342
H  1.334227  4.392356  0.162179
H  3.970708  5.529647  3.801545
H  1.876143  5.208413  1.569020
H  1.864230  0.144104  1.084986
H  4.933712  1.901386  0.190907
H  4.904056  1.598943  5.151978
H  1.021360  0.507612  5.503231
H  1.054220  0.513186  1.567900
H  2.389448  1.702892  5.705571
H  4.591711  2.469943  3.650956
H  0.315166  0.725949  0.218359
H  1.431346  0.913212  4.692667
H  5.688912  2.057831  0.860457
H  4.177427  2.053880  2.720343
H  3.096249  3.884419  3.385706
H  2.015967  0.740552  5.502252
H  4.322171  0.508558  3.978976
H  5.740884  5.224784  0.680049
H  0.590370  0.091797  3.726313
H  2.999744  1.377569  3.151634
H  0.028762  3.601765  3.225374
H  1.198016  1.019192  0.727494
H  5.607828  4.551654  1.367223
H  4.651950  5.649854  1.332417
H  2.379237  4.072821  0.267898
H  0.723300  0.477688  2.824865
H  2.647050  4.292478  4.163623
H  1.086111  3.284128  2.907940
H  0.117768  3.504769  0.699530
H  2.704439  5.071702  0.022128
H  0.648267  1.496681  5.252988
H  3.953746  4.238582  5.314815
H  1.620374  0.670712  2.476207
H  4.089293  1.041939  4.849596
H  3.553421  3.267697  0.298136
H  1.244099  0.113442  0.357378
H  0.315665  0.051845  2.021568
H  5.076465  2.430546  4.481710
H  3.204362  4.684700  2.670005
H  2.701387  3.143932  5.856661
