 200
  
H  4.199585  5.426570  1.765602
H  2.680650  1.465917  3.341410
H  0.633256  1.329293  4.019920
H  0.337113  3.273578  1.979910
H  1.788164  0.962708  1.903103
H  0.618599  2.151475  0.228681
H  4.533945  5.803754  0.054040
H  3.681973  3.661711  5.660966
H  1.164684  4.152422  1.284624
H  4.502083  0.406735  0.951724
H  5.246740  2.878710  3.660056
H  1.179467  2.383299  2.487615
H  2.853388  0.741593  5.197075
H  1.069892  4.396973  5.108628
H  5.587750  4.073415  0.246807
H  3.937245  2.236163  2.190268
H  1.666850  1.008247  0.927564
H  2.553917  1.870453  5.448217
H  0.956256  4.661765  3.041069
H  5.639335  5.384273  0.044992
H  5.188588  0.968229  3.072169
H  5.483165  0.283892  4.110508
H  1.607937  1.481433  2.756382
H  0.149071  4.803244  0.897916
H  0.711700  1.627338  5.109642
H  1.897928  3.470942  3.538677
H  1.729920  4.160922  0.432533
H  4.734726  3.789209  3.309012
H  1.432203  5.707482  3.948819
H  2.082323  5.074432  4.666424
H  0.146803  5.161073  2.675309
H  3.196130  2.912186  2.609306
H  1.680238  1.600020  3.793633
H  3.321214  0.526883  2.853725
H  5.943488  1.645248  1.250722
H  0.305970  2.317134  4.172601
H  0.654247  1.062538  0.507005
H  0.082839  3.062214  0.168253
H  2.757194  5.257766  0.228796
H  0.389387  5.674517  3.638207
H  2.333121  0.108033  0.821857
H  2.730606  1.547541  2.237685
H  4.695370  3.924960  5.893737
H  1.839187  5.048667  5.788399
H  0.189888  2.827850  2.982190
H  0.683329  5.200786  5.723264
H  1.867172  5.868419  1.841826
H  4.862640  2.648837  5.517651
H  5.935235  5.797706  5.085895
H  1.483041  2.377922  5.668087
H  3.702361  5.656037  0.675917
H  4.384725  3.302718  2.103990
H  1.622441  2.007495  0.634842
H  3.250077  4.665657  3.213956
H  0.227552  4.496350  1.960111
H  3.988122  2.999568  3.968406
H  3.878144  0.622937  4.920470
H  3.440914  0.603333  0.957027
H  2.574828  4.288115  4.065610
H  4.701605  2.248759  4.493084
H  3.655663  5.691758  3.532579
H  2.633600  1.622366  1.205438
H  0.209638  3.726501  1.009565
H  3.812097  5.535791  5.234613
H  3.578796  1.533940  2.889679
H  2.221130  2.523081  3.885041
H  5.568349  3.815474  3.966068
H  5.246241  1.110173  0.542187
H  2.202206  2.845598  5.003449
H  0.766878  3.606915  3.841967
H  3.897422  2.509181  5.093965
H  3.924503  0.448421  1.871763
H  4.025547  2.771374  0.111448
H  4.308935  4.342016  1.807972
H  2.483544  5.395644  3.700246
H  0.861651  5.971842  2.526239
H  3.592809  1.480692  1.547182
H  5.699175  0.534762  1.250842
H  4.308275  4.848829  2.915713
H  5.335753  0.475318  5.778868
H  5.235744  5.529966  1.141671
H  2.770787  4.134573  0.269925
H  5.222405  4.720355  3.387883
H  2.839942  0.571397  1.907468
H  5.276044  4.485731  1.422857
H  1.809056  3.709396  4.483619
H  0.388960  3.667674  4.788943
H  0.283411  5.640463  1.599677
H  3.783078  4.034532  3.931365
H  1.655135  5.563319  2.944021
H  0.604699  0.334691  4.406974
H  1.755299  1.233964  5.814053
H  4.506467  1.859206  3.497783
H  2.177489  3.014588  1.100014
H  5.630216  2.114977  0.368943
H  3.194630  2.385991  3.536484
H  2.774845  5.556189  2.736360
H  1.163546  3.221162  0.655022
H  0.682788  4.177258  0.152454
H  0.364477  2.598737  5.296766
H  1.627161  4.005563  2.291042
H  4.806100  5.912614  4.956147
H  0.224552  2.297056  2.111771
H  0.719595  5.330907  4.622101
H  2.016025  4.580089  3.176765
H  5.894312  0.202460  2.339872
H  1.434894  4.626207  4.080781
H  2.943497  4.548256  5.372663
H  2.337809  0.159641  5.739281
H  2.882925  5.589232  1.623894
H  0.967250  0.412375  1.400095
H  2.582606  2.299131  0.399754
H  3.173482  3.282592  0.771832
H  2.370393  3.197637  2.111411
H  1.964476  2.167676  1.848288
H  2.063551  4.032118  5.444942
H  3.056399  3.524871  4.732992
H  3.039726  2.272800  4.596865
H  2.296080  4.795967  2.103059
H  5.388783  5.757304  3.154421
H  2.966503  3.445801  3.637322
H  1.213107  5.039405  2.042628
H  4.630475  1.417303  5.295092
H  5.674889  1.382566  2.238102
H  5.630976  5.205722  4.258226
H  3.258073  0.727678  4.037118
H  1.044359  3.429623  2.861230
H  3.054396  2.745418  5.681107
H  2.820816  1.189686  0.272758
H  4.100760  2.700091  1.130281
H  2.191815  0.485106  2.765605
H  0.478380  2.572461  1.060942
H  5.626537  1.582989  3.923551
H  1.479329  0.986774  4.766301
H  4.127635  0.794377  5.978334
H  1.204411  2.567768  3.510514
H  4.169606  0.813761  3.492449
H  2.527561  1.374488  4.443310
H  0.393307  4.519033  3.972702
H  5.748432  0.929557  4.906364
H  4.800129  4.754031  0.550360
H  5.308002  3.475918  1.520602
H  4.572169  1.392791  2.317222
H  5.171207  4.110831  2.406685
H  3.295676  0.193670  5.970639
H  1.104267  3.335424  5.622789
H  0.681404  1.001936  2.232450
H  2.384666  4.019947  1.271716
H  2.062357  4.988774  1.054567
H  2.697595  3.915868  2.792458
H  4.555585  1.849989  0.231849
H  4.946281  0.379375  2.013258
H  3.717844  4.775163  0.107891
H  0.589545  0.601810  5.481542
H  0.387398  1.721117  3.123755
H  5.279347  2.407077  1.574166
H  4.292220  3.540663  4.860746
H  4.803175  4.992398  5.564330
H  5.390328  3.701351  5.198277
H  3.098698  2.591338  1.539083
H  4.643719  1.550904  1.250711
H  4.300731  4.948709  3.911372
H  1.325051  3.087293  1.722829
H  5.294347  3.079328  2.467008
H  4.976111  3.145868  0.528123
H  4.948134  4.385824  4.509294
H  5.532384  1.938034  5.071645
H  5.819854  4.776006  5.285949
H  1.148850  2.941609  4.667236
H  3.970289  4.493259  4.960983
H  5.967351  1.393783  5.778168
H  4.259465  5.869383  2.753403
H  3.806633  3.803835  2.898401
H  2.187430  0.567023  3.869784
H  3.332427  4.645747  2.177108
H  3.883910  1.472129  4.324183
H  2.264313  2.381332  2.854780
H  3.302818  5.000048  4.394921
H  4.420422  2.792821  3.011821
H  0.377385  0.060390  0.476522
H  5.575639  2.841424  4.669897
H  1.274832  0.666463  3.371918
H  4.532726  5.980172  3.943474
H  3.007126  5.881236  4.593358
H  1.710045  1.964533  4.782670
H  5.986473  3.978412  3.073714
H  3.506337  1.479169  5.502667
H  3.556712  1.886911  0.630720
H  0.288686  0.601235  3.298806
H  1.535771  5.963931  4.999572
H  2.162237  3.186210  0.112288
H  4.048696  3.781621  0.941792
H  1.072479  1.677461  1.491940
H  5.202061  5.287529  2.235330
H  4.792322  0.914481  4.404341
H  3.363097  3.622976  1.729095
H  3.286182  4.647299  1.157328
H  1.390468  0.136624  0.219836
H  5.324921  2.013636  2.963383
H  1.056707  5.268747  0.803841
