 200
  
H  1.885604  4.873640  1.816014
H  0.650380  0.153107  1.884560
H  5.681525  2.529183  4.885595
H  1.107180  5.163600  3.547897
H  5.028022  5.301491  1.509708
H  1.810479  1.969097  2.246729
H  4.023196  2.869880  2.323231
H  0.333599  4.536137  0.801778
H  2.677590  5.667624  1.920110
H  4.094308  4.270984  5.843905
H  2.655587  0.866156  0.942136
H  1.392264  2.644064  3.947942
H  2.431381  0.319318  2.904878
H  1.229839  2.809639  1.811144
H  5.779661  5.343441  5.297266
H  4.383834  0.341423  5.574362
H  5.559130  3.196365  1.122227
H  1.642129  5.836829  2.007532
H  5.417052  4.809059  0.472027
H  0.956017  3.910652  5.042612
H  3.611966  3.657157  0.669106
H  1.232929  4.561594  2.649989
H  2.254813  4.842392  0.829157
H  1.459774  0.674873  1.288616
H  5.760579  5.885153  2.404577
H  1.327654  2.722419  2.910405
H  5.735873  2.191186  0.486230
H  3.869858  3.542683  5.087832
H  3.146346  3.137723  3.424716
H  0.618109  0.294174  0.834205
H  5.804560  1.212128  0.771044
H  2.862668  0.256595  5.034390
H  4.031584  2.825874  0.115072
H  2.066937  0.762280  4.260217
H  1.893967  3.455884  4.672613
H  3.823775  4.967537  2.588673
H  5.250549  3.152328  2.846662
H  4.869956  0.799569  0.429916
H  0.814881  3.532426  2.468676
H  1.713610  0.780490  5.255830
H  3.303687  4.454109  1.159257
H  4.778937  3.550062  3.873327
H  3.425677  0.401831  0.015067
H  0.517746  5.459283  0.213881
H  1.502315  3.811862  1.765523
H  0.146633  5.356554  1.365082
H  4.840449  3.470037  1.868545
H  5.842558  3.793926  2.188030
H  4.957084  1.872227  3.281917
H  3.049121  3.478629  5.728028
H  2.565543  1.286813  5.023910
H  5.016467  0.990558  4.095146
H  4.622762  5.254623  4.810590
H  5.628178  3.938851  4.775737
H  1.693184  1.756226  4.501742
H  5.015479  2.425751  2.090341
H  4.239937  5.038914  0.501317
H  4.814065  3.143387  4.925206
H  0.385608  0.822595  2.734721
H  5.822948  3.769804  3.704127
H  1.185884  3.743419  3.621144
H  1.867947  1.342292  3.300290
H  3.946344  1.054164  4.233359
H  2.945619  1.297235  3.969117
H  5.686750  1.416427  4.928399
H  2.397987  5.270282  5.839048
H  4.579465  4.522148  2.123213
H  5.811400  1.838779  1.634077
H  1.359994  4.644134  5.932914
H  1.113602  2.715686  5.000596
H  4.638314  1.192374  5.120046
H  2.603726  2.924149  0.662291
H  0.433323  2.130399  4.370883
H  3.396847  2.971616  1.492783
H  2.691021  1.479570  2.773923
H  5.957002  0.476900  4.090995
H  3.648040  1.128201  0.946999
H  1.297222  4.359018  0.889502
H  2.864545  5.298369  4.818572
H  5.463535  1.231216  2.403189
H  4.030279  5.995838  4.387443
H  2.263155  0.740201  1.977445
H  0.382888  0.195454  5.057259
H  1.327901  1.005591  2.353031
H  0.456510  0.006004  3.348753
H  0.470445  3.175374  4.326220
H  0.857809  1.887410  3.347067
H  1.550830  3.163936  0.786423
H  0.978072  2.619288  0.002372
H  5.752958  5.297356  3.255126
H  4.311588  2.680512  3.365997
H  3.355477  4.380119  5.144015
H  4.088765  2.107433  1.565798
H  1.780341  5.763257  5.051062
H  0.925005  3.746976  0.182956
H  3.694277  3.881959  4.108835
H  5.390984  4.724367  4.087702
H  2.060908  5.755378  3.770170
H  1.081029  1.050457  4.011328
H  2.909373  5.084006  3.556178
H  3.672821  3.979479  2.049672
H  5.796838  2.171184  2.780991
H  3.088748  5.568969  0.561952
H  3.577178  1.038407  5.270235
H  0.504518  4.403064  4.201566
H  2.668129  1.902205  1.354342
H  2.168156  3.367062  3.700873
H  0.833876  1.660633  0.509839
H  5.067850  2.882374  5.928006
H  3.088751  4.127485  3.099204
H  3.753348  2.760581  4.246532
H  0.281286  4.427674  2.927349
H  2.904057  3.167270  4.535897
H  3.090828  2.448565  5.624837
H  0.335738  5.481765  4.313060
H  5.873565  1.627316  3.768064
H  1.823026  3.667440  2.716306
H  5.132542  0.248772  4.868980
H  2.919103  3.360883  2.404404
H  0.625589  4.535840  1.815008
H  4.828792  5.323645  2.803314
H  4.527451  4.227230  4.722465
H  2.916915  1.540208  0.120945
H  0.499785  1.114382  1.532845
H  0.720512  1.935622  2.271757
H  2.849568  4.584503  2.159705
H  3.091524  2.277016  2.372272
H  1.660199  4.959587  4.367348
H  3.672389  4.903624  4.351068
H  5.181514  1.792662  5.764886
H  5.440020  0.405515  1.425102
H  5.169353  4.391387  5.599328
H  4.481666  0.695466  2.946847
H  3.033870  0.252342  3.767607
H  2.213901  2.508370  5.104537
H  0.703892  0.801895  5.876446
H  4.805706  5.428912  5.728636
H  1.903962  4.397093  3.494433
H  3.440596  0.117325  2.433599
H  5.447655  0.477245  3.225336
H  2.214214  2.960518  1.601439
H  0.289547  1.828649  5.598377
H  4.121226  1.658932  0.086431
H  0.864165  5.203714  5.119563
H  4.612447  2.125431  4.300143
H  0.057689  2.772464  2.097469
H  1.384283  0.049129  0.060705
H  0.237192  3.288317  5.513518
H  4.891896  1.718819  1.034614
H  2.491958  3.950330  1.439792
H  1.135408  0.058058  4.244244
H  0.451493  2.921330  3.368392
H  1.711700  1.079937  0.365464
H  3.047371  4.548224  0.101956
H  4.939053  5.801368  3.894416
H  5.432670  2.617405  3.861328
H  5.655590  5.956874  0.469449
H  5.491562  4.233782  1.318011
H  0.527572  3.565000  1.306579
H  3.985731  1.754825  2.660298
H  4.806855  3.794356  0.434513
H  3.381886  2.075737  3.513292
H  4.470002  0.097731  2.114795
H  3.412851  1.218467  1.927775
H  2.498995  2.272631  4.051528
H  5.659314  0.709807  5.722277
H  5.658860  4.847420  2.254440
H  2.147846  5.889327  0.940540
H  2.265155  3.940895  0.428675
H  0.733861  1.239570  4.919245
H  4.472543  5.978913  0.993660
H  2.259865  4.249252  5.334256
H  3.430492  2.309950  0.713035
H  4.504331  2.938145  1.020326
H  1.504342  1.743978  5.550530
H  0.637012  5.326513  2.468221
H  1.249468  5.404777  1.106157
H  2.605173  4.343771  4.295518
H  2.211608  5.257145  2.756425
H  4.546766  1.111279  1.861835
H  4.416111  4.280648  1.191955
H  0.327891  4.457635  5.735585
H  1.944174  2.092874  0.525085
H  2.401027  0.379226  5.976967
H  3.473230  0.941332  3.083458
H  1.510647  1.686652  1.320796
H  3.421514  0.179207  1.365895
H  3.445220  1.917819  4.685596
H  3.616186  5.379439  5.654354
H  3.965557  5.779516  3.311199
H  5.829346  3.763371  0.317109
H  1.825037  3.254893  5.794254
H  2.438113  2.511933  3.073405
H  4.137832  3.753188  3.006285
H  4.390213  4.629102  3.586300
H  3.907793  5.334563  1.599085
H  5.160135  4.287455  2.975845
H  0.612580  2.496867  1.057649
H  1.444276  0.180584  3.019685
H  4.253556  2.325601  5.268064
