 200
  
H  2.481930  5.561010  1.328546
H  1.864325  0.795185  3.625185
H  0.577442  2.043444  0.208664
H  0.742201  5.361688  3.522943
H  4.950441  5.025034  1.185398
H  2.253667  1.700813  2.462305
H  4.413685  1.748749  2.022973
H  0.810202  4.357808  1.143006
H  3.706664  5.506072  3.046194
H  4.078867  3.862873  0.486463
H  4.044478  1.161827  0.517605
H  1.554611  2.890825  4.168024
H  3.842430  0.855934  2.935735
H  2.454953  3.352826  1.811277
H  4.927131  5.645630  4.457013
H  4.452137  0.089891  5.787139
H  4.405472  2.335034  0.757128
H  2.796519  5.527074  2.813651
H  5.546424  5.465559  1.450206
H  0.441376  3.401537  3.888742
H  2.545424  3.640600  0.104053
H  1.985526  5.298506  3.224142
H  1.440743  5.928762  2.419454
H  1.908290  0.687209  2.146631
H  5.277793  0.895225  2.397425
H  1.885297  2.801648  2.396014
H  4.912418  2.469367  0.356706
H  4.961020  3.697230  4.751632
H  3.311910  2.410281  2.635147
H  0.639484  0.699751  1.354828
H  5.552153  1.280391  0.459298
H  4.174729  0.227039  4.465363
H  2.541586  2.952127  5.991552
H  3.196917  0.396806  4.070541
H  1.895281  4.545608  4.053845
H  3.353046  4.688127  2.559256
H  5.838604  2.740085  3.820372
H  4.550359  1.133821  0.798454
H  0.101858  3.852574  1.712614
H  2.994884  0.767734  4.836915
H  2.410424  4.812703  0.281337
H  5.502433  3.515892  4.279100
H  3.061502  5.670648  0.314994
H  0.116224  0.338438  0.040006
H  2.489694  4.667955  2.942254
H  0.389345  0.467128  0.618719
H  3.659257  2.949509  2.057873
H  1.301957  3.051140  2.785021
H  5.468601  1.804762  3.287235
H  2.378410  4.076477  5.185531
H  3.818648  2.026275  4.797910
H  3.893447  1.089772  4.163323
H  4.759382  3.959061  4.480926
H  5.170652  4.674652  4.848115
H  2.181927  1.493237  4.724054
H  5.372594  2.687476  3.078583
H  4.457744  4.871676  0.506450
H  5.903343  2.868433  4.186065
H  1.365352  1.556247  2.459608
H  0.000110  3.937957  4.873329
H  0.987611  4.065905  3.643340
H  2.193460  2.757345  2.653433
H  4.100006  1.718455  4.763997
H  3.122625  1.273113  4.398671
H  5.426715  1.761885  5.716858
H  3.062992  4.463153  1.092790
H  3.951193  4.729564  1.913994
H  5.339678  1.756597  1.418500
H  1.802237  3.907762  5.455147
H  0.634206  0.901600  5.347266
H  4.693128  0.411005  5.147968
H  1.808300  2.783667  0.645311
H  1.790830  0.818814  4.002807
H  3.262250  3.500304  1.023825
H  3.532090  1.468463  2.760679
H  5.263330  0.608601  4.929782
H  4.839073  0.209182  2.047517
H  1.792380  4.739102  0.614986
H  3.524161  0.171227  4.175652
H  5.104115  1.406733  1.652884
H  4.134947  5.242174  4.577645
H  3.805504  1.138237  1.686246
H  0.889348  0.382781  5.322993
H  2.664661  0.711382  4.068788
H  5.214733  0.363237  3.659175
H  5.067727  1.793636  4.899557
H  1.694357  1.274698  3.839465
H  2.086955  3.355948  1.850816
H  1.174151  2.823494  0.550135
H  5.445995  5.241335  3.146475
H  4.670855  3.680853  4.009454
H  3.931610  4.004657  4.584867
H  3.428197  2.645363  1.896609
H  1.801719  5.846272  5.256061
H  1.493260  3.521948  0.233665
H  3.635740  4.631626  3.015689
H  5.313732  4.665882  3.861474
H  2.603727  5.845650  3.748359
H  0.701827  0.908864  3.578437
H  3.599969  5.131645  3.398926
H  3.588248  4.874172  1.645424
H  5.896999  2.088434  3.110943
H  3.432717  5.245350  2.188383
H  4.130919  1.831503  5.237168
H  2.118326  4.800253  5.932910
H  2.546445  1.735988  1.601601
H  1.814723  3.100164  2.949375
H  2.293625  1.217199  5.814445
H  4.887720  2.879945  0.056146
H  2.745737  4.577899  2.855181
H  3.939954  3.850477  4.088384
H  5.907792  4.306132  3.933490
H  3.642300  3.444303  4.813818
H  3.196910  3.175830  5.027822
H  0.037353  4.486168  4.773517
H  0.706072  1.782445  4.711752
H  1.673922  3.616635  1.967157
H  4.668187  0.464972  4.358783
H  3.392344  3.895749  2.086830
H  1.013171  4.914737  1.303271
H  5.417035  5.469351  2.485235
H  4.621615  3.099357  5.746484
H  4.479351  0.552958  0.123508
H  0.775548  2.250505  0.914670
H  0.881547  2.718315  2.523176
H  3.075202  4.907881  2.658308
H  2.317093  2.290214  1.701281
H  2.892957  5.684618  0.114128
H  3.565930  5.007355  3.722377
H  5.132922  1.891775  5.241505
H  5.517827  5.977848  0.963855
H  5.524586  3.889518  0.235712
H  4.745640  5.633657  2.820900
H  3.460963  0.533632  3.978381
H  2.056099  3.618123  4.432826
H  5.961874  0.585517  0.097726
H  4.651456  0.264548  5.256737
H  2.066835  4.762795  3.605815
H  4.996380  0.672967  3.494024
H  5.492598  1.621055  4.167634
H  2.901073  4.239068  1.367974
H  0.581555  1.711084  0.489821
H  4.087230  2.385858  0.694747
H  5.643122  5.948103  5.161109
H  4.673918  1.455466  3.778808
H  5.732643  3.237748  1.224260
H  1.140020  5.317248  0.886992
H  0.284624  3.184031  5.007554
H  4.100005  2.311028  0.817212
H  3.073845  3.876208  1.863030
H  1.077257  0.235269  3.645964
H  0.053833  2.926303  4.493701
H  2.363631  0.232275  5.438403
H  3.374041  4.610036  4.892695
H  4.447013  5.501649  3.312775
H  5.552431  2.183910  4.321455
H  4.717188  0.839608  0.637828
H  5.525709  4.915842  2.266589
H  0.888575  4.068100  1.359107
H  4.275901  1.432234  1.909627
H  5.312853  3.292688  0.551842
H  3.999519  2.113392  3.134487
H  5.388705  5.496348  1.878626
H  3.347644  1.788288  2.021312
H  2.880418  3.013904  2.693760
H  5.214699  5.820376  5.425700
H  0.768092  5.296356  1.530202
H  2.038639  0.089329  0.516964
H  1.958660  3.694251  5.904037
H  2.155307  0.705541  4.882028
H  5.395125  5.670780  0.652310
H  2.710941  4.830901  4.276147
H  3.822151  1.681998  5.686408
H  4.716975  2.412708  0.174281
H  2.339768  1.686497  5.546856
H  5.853031  5.465950  2.565916
H  0.421092  1.180215  0.860452
H  3.489465  4.295135  3.744488
H  3.296315  5.557462  3.103268
H  4.423852  5.503078  1.699370
H  3.392490  3.496876  0.943607
H  0.979206  4.363059  0.576158
H  3.297524  1.997906  5.134085
H  2.724344  0.086515  5.038852
H  4.533484  1.879083  3.113462
H  1.977361  2.551412  1.700692
H  4.068850  5.521241  3.038672
H  5.242737  2.283120  4.975763
H  3.663218  5.301639  5.193505
H  4.775222  0.347611  3.966915
H  0.875390  2.959782  0.127621
H  0.810654  2.369914  5.494450
H  3.107628  2.485198  2.364571
H  4.023142  4.243879  2.871848
H  3.884243  5.102504  3.488636
H  3.705128  5.388530  1.061088
H  5.564706  4.915764  2.599171
H  5.667386  1.552046  0.406142
H  2.762426  0.430781  3.268770
H  4.546148  1.480650  4.821044
