 200
  
H  4.275524  5.266068  2.401238
H  2.791590  0.668948  3.015324
H  0.467029  1.503668  3.795449
H  5.421112  2.572088  1.559498
H  1.689395  0.944662  2.848128
H  5.726996  1.979027  0.924786
H  3.659000  5.394565  5.746250
H  4.104757  3.559717  5.710791
H  1.076338  3.808894  2.065691
H  2.917016  0.491428  1.730061
H  4.993785  2.128358  3.450508
H  1.394358  2.381351  2.742718
H  2.353445  1.059071  4.640756
H  0.353049  4.393190  5.111499
H  5.326965  3.752670  1.030026
H  4.729272  2.323107  1.632356
H  2.079554  0.423805  1.641477
H  2.317852  2.182911  5.544374
H  1.313101  5.083730  2.661454
H  4.265170  4.517295  0.495004
H  4.905871  0.920446  3.732510
H  0.192332  5.984905  4.270795
H  1.977413  0.481233  3.909112
H  5.767643  5.009262  1.789365
H  0.848665  0.836573  5.651173
H  1.826385  3.177217  3.292873
H  1.075352  4.333219  5.325507
H  4.323288  4.153907  2.554611
H  1.602061  4.952941  3.126441
H  1.851138  4.895198  5.112142
H  5.566946  4.860214  2.535935
H  3.329150  3.368305  2.681647
H  2.227100  1.824927  4.590434
H  3.172948  0.368721  2.918802
H  4.723488  1.844318  1.109179
H  0.217210  2.716479  4.678749
H  1.272278  1.645457  0.060946
H  0.081910  3.845817  5.090975
H  3.652244  5.590177  5.827941
H  0.145147  4.333939  3.309121
H  2.173756  5.534705  0.615230
H  1.642536  1.627727  2.491173
H  4.468050  3.222235  0.462746
H  3.033796  5.075971  5.831141
H  0.298227  2.811745  2.779250
H  0.201661  5.246131  5.542099
H  2.699114  4.841256  1.301334
H  4.535386  2.334454  5.212036
H  5.713407  5.951204  5.501509
H  1.161246  2.537627  5.911829
H  3.890951  0.423943  1.154765
H  4.149637  2.968334  2.640342
H  0.105758  1.426832  1.710124
H  3.212736  4.896722  3.180868
H  0.321453  3.365536  1.691746
H  3.766261  2.229784  4.018908
H  3.445311  0.383764  4.145052
H  2.487709  0.482629  2.781703
H  3.103262  4.509650  4.020398
H  3.337589  1.488774  3.078551
H  1.970413  5.854629  2.667886
H  2.680995  0.930566  1.052518
H  5.574806  3.394896  1.247694
H  3.694421  0.153961  4.532919
H  3.182298  1.635400  2.912392
H  2.563589  3.033901  4.944545
H  5.780483  3.688159  4.060134
H  4.077859  0.875511  5.859934
H  1.914447  2.635543  5.805763
H  0.189461  3.980688  4.184491
H  3.832349  2.476105  5.148585
H  3.541836  0.488337  1.910668
H  3.946197  2.513793  0.776641
H  3.765013  3.814901  1.700737
H  2.570010  5.368326  3.435457
H  2.026757  0.089169  1.989141
H  3.485669  1.132225  2.638719
H  0.421397  0.119132  5.763661
H  3.794072  0.258936  3.263380
H  4.191121  0.147318  5.953071
H  5.472944  5.163856  1.165869
H  3.492876  4.996698  5.655506
H  4.793478  5.169020  3.404661
H  1.170540  1.326058  3.171004
H  0.001695  3.917066  1.784818
H  2.245264  3.807804  3.442001
H  5.949062  3.617026  4.470782
H  5.748569  1.059966  3.009988
H  3.899869  4.144342  4.069546
H  1.510655  0.310222  3.016317
H  0.285850  0.552042  4.393160
H  1.899597  2.268010  0.294068
H  4.412808  1.224484  3.215205
H  1.825729  2.434119  0.217772
H  0.037208  1.972868  5.380038
H  2.798115  2.737991  3.516491
H  2.456592  5.995077  2.152702
H  0.847170  2.292856  0.919082
H  5.999996  4.576371  0.384463
H  0.521706  2.349535  5.176238
H  1.353883  3.959491  2.296311
H  4.027516  0.144159  4.910736
H  5.107269  1.807482  1.842099
H  2.555966  4.479427  4.186100
H  1.670403  4.640281  3.034752
H  5.592862  0.424063  3.064410
H  1.576488  4.378089  3.266025
H  3.482063  5.430551  4.939415
H  2.014134  0.551055  0.651055
H  3.465280  5.295632  1.461163
H  0.193815  0.804739  1.663153
H  2.381603  2.169902  0.013472
H  3.201363  3.945546  0.015534
H  1.855401  3.635007  2.142052
H  1.106211  1.918974  1.820721
H  3.204801  3.526177  4.805633
H  3.322659  3.077656  5.469216
H  3.177319  1.814864  4.150302
H  1.625304  5.406358  2.758066
H  3.962884  5.095621  4.605508
H  3.282247  3.315440  4.353028
H  1.615504  5.506720  2.152915
H  4.703867  1.384638  5.227844
H  4.878230  0.856027  2.512491
H  5.110467  5.260416  4.778835
H  3.315369  0.580121  3.435105
H  0.152303  3.860221  3.302437
H  3.260149  2.855034  5.878065
H  3.257323  1.083198  5.610119
H  3.473709  1.508128  1.085468
H  1.808708  0.669928  3.192689
H  5.079221  2.328996  1.424724
H  5.120097  0.646755  4.454464
H  1.056131  0.857025  5.704394
H  3.512414  0.504258  5.212032
H  1.900336  2.314379  4.282379
H  4.072332  0.615137  2.482515
H  3.025759  1.491678  4.176536
H  5.673068  4.657252  4.430782
H  4.699026  0.439282  4.546015
H  4.260023  5.781141  0.830352
H  4.556573  2.852880  1.613532
H  4.101646  1.888631  2.910852
H  5.413482  3.776675  1.251392
H  2.911326  0.671960  5.082009
H  0.894180  2.846260  0.086517
H  0.217070  1.162885  3.368303
H  2.509611  3.700481  1.798222
H  2.465737  5.006764  2.352705
H  3.184545  3.521260  2.695242
H  4.736696  2.281553  0.554872
H  4.784091  0.073707  1.271795
H  3.761965  3.801056  5.664393
H  0.139778  0.168267  5.091446
H  4.972938  1.666811  2.984653
H  4.924269  2.272703  1.212607
H  4.889939  3.764100  4.342283
H  4.354923  4.496652  4.927250
H  4.743551  3.103104  5.468168
H  2.988817  2.828947  1.819316
H  4.094320  1.086325  2.101421
H  3.904266  5.112349  3.624287
H  1.597679  3.173240  0.784051
H  4.428529  2.933877  2.723541
H  4.718159  2.376518  0.787353
H  3.809571  4.126342  3.585032
H  5.581593  2.271647  4.138206
H  5.593481  4.513049  5.111941
H  1.451454  3.284506  5.166548
H  3.473897  4.763395  5.226452
H  4.962822  1.911783  0.047560
H  4.900550  0.181275  1.699909
H  3.107493  4.256700  3.322547
H  2.080357  0.285029  3.809603
H  2.999091  4.941882  1.966538
H  3.133311  0.655247  5.106482
H  1.515769  1.939943  3.736026
H  2.846884  5.331679  3.478198
H  4.220705  2.328500  2.829658
H  5.553570  5.482577  0.848933
H  5.894239  3.460255  4.538727
H  1.374409  5.982091  4.215551
H  4.212036  0.351830  3.670506
H  2.625116  0.122500  5.249807
H  0.679267  1.958652  4.693668
H  0.002190  4.638655  2.582876
H  3.616912  0.835208  0.421019
H  3.189072  1.994452  0.152837
H  0.139411  0.416681  3.960907
H  1.236742  4.907280  4.964950
H  3.143865  4.262108  5.723425
H  3.578287  2.364388  0.659827
H  0.066537  2.498518  1.467827
H  4.863091  5.475631  3.297228
H  3.605745  1.709383  4.279619
H  3.437297  4.011231  0.976760
H  3.363038  4.463115  0.908552
H  1.188443  5.581306  0.285282
H  4.818162  2.106003  3.150998
H  5.866255  5.235673  1.184790
