 300
  
H  4.499327  4.675419  4.017775
H  2.012199  3.304043  0.482415
H  3.149683  5.988998  2.089535
H  4.935519  1.500094  4.462221
H  2.775005  4.375954  5.006675
H  3.510751  1.644638  1.689532
H  3.764101  3.569337  5.500581
H  4.143597  0.563394  4.632853
H  5.256483  2.446385  1.582463
H  2.401953  1.485217  5.543200
H  3.152222  0.084981  1.175337
H  0.838612  0.458232  2.805551
H  1.449836  3.796683  4.208650
H  4.778115  1.481780  0.032533
H  3.625498  0.492665  3.807836
H  3.592995  5.930574  1.132592
H  0.527919  3.922029  5.879966
H  5.931047  3.743391  5.982952
H  2.490964  2.151902  3.809004
H  4.268317  2.643359  4.628156
H  4.032509  0.063841  2.477664
H  0.803976  2.988575  1.677971
H  3.514361  1.296360  2.133650
H  4.718108  1.129389  2.560081
H  4.587254  5.446356  5.810774
H  3.988419  4.328755  3.098988
H  1.795450  0.125085  3.612716
H  4.288052  1.733405  3.402753
H  0.702925  2.744145  3.451969
H  5.662962  5.030136  2.886920
H  1.404562  0.174528  0.444842
H  0.948229  2.083246  0.677402
H  5.795233  3.213898  5.575924
H  5.803435  2.588419  1.814808
H  5.706032  1.395133  3.279161
H  2.128526  5.690693  4.596781
H  4.948618  3.290930  1.567578
H  3.490106  3.848701  3.746901
H  5.625426  1.415277  4.629404
H  0.197111  1.702111  4.794872
H  2.558651  2.380546  0.606417
H  1.906563  1.175256  5.022427
H  3.865080  3.134853  4.267632
H  0.518707  0.997808  0.028032
H  4.092157  0.533405  0.430126
H  3.987710  4.451347  2.074697
H  0.247260  4.631592  5.680162
H  2.488086  3.209580  0.033318
H  3.969649  3.347439  1.165703
H  3.717679  2.113688  5.216289
H  1.116090  5.377751  5.674274
H  5.068033  5.116561  0.000510
H  0.827137  3.001732  1.132636
H  1.145830  3.843863  0.772794
H  2.531369  4.891230  3.495391
H  4.485191  1.867226  0.622647
H  2.207679  2.195268  2.716312
H  4.573331  2.673026  2.028106
H  4.774840  2.054050  3.035025
H  3.250901  2.316011  2.686025
H  3.633354  2.831591  2.801948
H  4.491649  4.822136  0.026735
H  3.959879  0.901507  0.787140
H  2.956447  2.880960  3.690768
H  1.561192  3.334524  1.727045
H  4.334242  4.744888  0.889393
H  5.933189  1.902227  2.434785
H  1.932138  5.706419  1.906393
H  4.960087  5.360897  1.377664
H  2.802201  4.276166  3.402083
H  2.605336  1.023488  1.744871
H  3.356741  5.546367  0.614487
H  5.198963  3.268568  1.745941
H  3.088582  2.455158  5.167533
H  0.698008  2.495717  2.586508
H  0.192642  4.349059  4.917681
H  0.537199  3.722356  2.761733
H  5.344977  5.678674  0.168924
H  1.944593  5.078113  2.311648
H  1.991668  1.483363  2.582075
H  1.872603  0.300388  5.401069
H  4.943358  1.955543  2.789155
H  3.735257  4.627103  2.669820
H  2.974513  1.914074  3.529089
H  5.465627  3.169035  3.796826
H  5.598912  1.635169  1.915701
H  4.316563  2.871401  2.882631
H  4.505756  1.760070  4.223639
H  4.744791  4.923137  5.583419
H  2.447129  1.570060  0.012872
H  2.370081  3.649365  4.111061
H  2.743438  3.585869  2.010047
H  5.139944  2.133904  2.472827
H  0.944404  1.544068  1.452754
H  2.219073  0.837610  2.665577
H  2.818154  2.525185  1.840600
H  0.148047  0.079869  4.238110
H  0.768091  5.520310  0.887692
H  1.647093  4.710391  1.535763
H  4.799712  0.103316  0.633759
H  1.438069  0.833027  0.609592
H  0.306231  1.079127  1.054504
H  1.417989  2.327994  1.583132
H  4.458603  1.814934  3.745444
H  5.030965  3.168014  4.541539
H  3.333704  5.875790  0.906919
H  0.709359  5.013681  3.794477
H  0.876745  3.945514  2.194524
H  1.203191  5.414187  5.104541
H  0.811725  4.188175  0.913361
H  4.356222  3.240096  5.127368
H  0.679234  4.159107  1.983515
H  2.585869  3.488608  0.204670
H  5.270147  3.528653  4.315689
H  0.816234  3.810384  1.756387
H  5.922452  2.425045  2.566015
H  0.258960  1.307528  0.487852
H  4.963355  4.578705  0.424920
H  4.736925  4.225672  2.046396
H  2.936732  4.747051  4.493547
H  2.022151  2.466027  1.306149
H  2.427746  1.388231  0.556155
H  5.708911  3.339614  5.932248
H  2.476131  3.616192  1.954795
H  2.635512  4.003462  2.830766
H  4.733536  0.907983  3.153417
H  1.043663  2.704645  1.539579
H  4.888452  2.095868  1.835987
H  0.571855  3.939203  0.824728
H  3.905189  1.364390  0.872907
H  5.872826  1.830977  4.169567
H  0.813514  0.731274  0.953217
H  2.553794  1.689623  1.167329
H  2.062261  3.601241  5.164289
H  4.913044  4.379195  4.878672
H  3.479237  4.543162  1.279683
H  1.253433  1.010902  1.661706
H  0.049710  2.749430  0.124700
H  5.377812  2.927385  4.971948
H  2.850476  4.886573  5.465433
H  0.288816  0.140648  4.724531
H  1.413270  2.178503  5.256432
H  2.671647  2.823850  2.645661
H  1.988915  0.669521  4.162511
H  2.662276  2.131441  1.909715
H  0.816317  0.913077  4.296826
H  2.760778  4.079491  5.263320
H  2.771561  5.381544  3.548121
H  0.760809  2.317445  1.663909
H  2.576593  0.196192  4.607186
H  5.136067  2.548627  0.825608
H  5.298737  0.092006  3.697216
H  5.429695  2.542561  1.757885
H  0.654480  0.580469  3.867494
H  5.596241  2.977818  2.055647
H  3.107222  2.607178  3.941567
H  5.942537  2.779237  1.124257
H  3.799860  0.227558  4.608853
H  3.675069  4.859115  5.848853
H  1.369432  4.409858  2.984640
H  5.955780  1.567719  1.640013
H  4.739167  3.919158  1.595660
H  1.771918  3.170982  0.639950
H  3.638623  3.628052  1.819622
H  3.854930  0.124124  3.735078
H  0.275783  1.685128  1.285865
H  3.924496  0.377905  4.805154
H  3.827248  2.334375  2.264714
H  1.115092  3.665550  2.089871
H  0.452780  0.836989  0.388160
H  1.725846  2.835716  5.879433
H  3.211215  5.635019  0.456701
H  1.610206  1.269222  4.999329
H  4.593295  1.312853  2.947198
H  0.486538  2.110102  0.450113
H  1.185287  0.698363  3.406885
H  5.806085  3.320778  3.351080
H  3.311230  3.042448  2.928605
H  3.535807  0.311320  5.212742
H  5.377039  0.181596  4.889528
H  2.763700  3.517896  1.772852
H  2.942625  1.252243  0.455234
H  3.820188  5.985069  0.075208
H  3.346383  2.739855  1.310658
H  2.274188  5.981405  4.671444
H  0.295309  1.472469  2.406152
H  5.368400  0.006123  3.722588
H  1.156538  1.635533  5.205030
H  1.890558  4.123907  1.101790
H  4.455470  5.696170  4.851806
H  1.334508  1.237373  0.086138
H  3.318479  0.792110  4.055804
H  1.663788  4.577802  5.534220
H  3.560683  3.655359  0.403491
H  3.582013  0.103194  3.594883
H  0.817409  4.368800  3.923090
H  5.222375  2.719025  0.018114
H  2.167519  0.700008  4.388229
H  3.560480  4.206077  2.075507
H  2.993337  3.653959  3.053854
H  5.992673  4.520116  1.149736
H  3.735860  5.648728  2.191102
H  0.607988  0.646307  1.778018
H  5.949013  1.351418  3.231710
H  0.098088  4.746174  3.340970
H  3.231595  4.826517  1.808097
H  3.254002  5.636486  5.741557
H  4.334525  1.517314  5.545414
H  3.388210  3.638670  1.035738
H  5.530074  2.981888  1.210033
H  2.838621  0.520981  3.582839
H  2.148401  1.806864  4.028893
H  1.004000  2.051430  4.061098
H  0.231541  3.176318  0.677463
H  0.421164  4.678265  0.565712
H  5.720440  1.334402  1.561000
H  5.390990  3.178985  5.748371
H  3.254809  5.577709  3.591413
H  0.036760  4.762860  4.990623
H  3.904204  5.265155  2.476341
H  4.465901  5.763239  3.116534
H  0.180217  5.069544  4.486143
H  2.501047  3.854132  2.421344
H  0.405057  1.647225  4.974710
H  1.494148  3.481258  2.641986
H  2.755950  5.275831  4.850228
H  0.729319  5.045884  1.164533
H  0.338449  3.575107  1.370068
H  3.530896  3.907738  2.608249
H  2.358874  1.547065  1.791760
H  0.005439  4.749481  4.062503
H  0.631971  2.364004  1.398515
H  4.595420  1.421102  3.622665
H  1.295935  0.319734  2.092170
H  0.967382  1.933595  1.510187
H  5.545123  0.932808  5.200219
H  4.041214  2.231541  0.614261
H  4.396411  0.682263  3.784759
H  0.162080  2.028279  3.590953
H  0.078240  5.137009  5.391934
H  3.100307  4.140418  0.208125
H  5.273634  1.052597  3.371630
H  2.306578  1.496231  0.129594
H  3.294941  3.745593  1.593772
H  2.820290  1.003347  5.632054
H  4.465170  1.634809  5.185841
H  0.216202  0.095115  1.818300
H  4.046993  2.038453  3.287548
H  4.182422  2.236989  3.012572
H  4.015165  1.875126  3.426148
H  5.015561  3.111713  1.096975
H  5.352842  5.873644  5.544236
H  1.514201  0.504259  0.799429
H  0.708131  4.516692  4.273186
H  4.759867  1.882746  4.659542
H  1.090236  5.579510  0.780433
H  0.636127  3.058915  3.351438
H  1.461904  1.321530  1.774477
H  5.742263  3.139084  0.308979
H  5.781545  5.062850  4.655278
H  4.813955  0.130344  2.551739
H  0.714089  3.704444  5.290879
H  2.521424  1.173222  0.001108
H  3.142792  4.150279  0.163651
H  4.092965  5.333822  2.011401
H  2.451086  5.515146  3.123348
H  5.953472  3.387134  2.425941
H  2.707979  1.981746  2.480143
H  0.771058  2.404740  4.663251
H  3.023391  0.980131  4.041952
H  0.323670  5.762293  1.062627
H  1.327227  0.137154  2.512619
H  1.530834  5.439874  0.487673
H  4.580519  1.972372  4.720127
H  5.062369  3.762145  4.638991
H  0.170314  1.011547  2.008210
H  0.038748  3.452501  2.238500
H  2.192937  1.780736  2.527175
H  0.405023  4.658092  2.698945
H  1.348829  2.577236  5.751082
H  0.158417  2.377161  0.863878
H  4.403921  4.784864  2.643285
H  5.445362  4.399174  4.934920
H  4.358774  4.213337  2.532154
H  2.869984  5.367325  5.603046
H  5.296470  0.218190  5.517000
H  5.595830  1.863555  2.011639
H  0.334032  2.814188  3.357595
H  3.670064  4.239210  5.745737
H  0.384133  2.556306  5.173069
H  3.923914  3.664891  1.773445
H  3.748226  2.796521  2.839602
H  2.437779  3.295264  1.548079
H  2.011122  1.184782  0.331226
H  1.387247  1.198439  1.133384
H  1.962191  2.827266  1.869187
H  1.526578  1.267072  4.598392
H  5.334450  5.229833  3.657922
H  0.790218  4.348115  2.496457
H  5.438348  2.119799  2.767856
