 200
  
H  5.185686  4.695137  2.471496
H  1.944828  4.714623  1.175742
H  2.622088  5.511254  3.372063
H  1.015115  2.400603  3.561123
H  0.132238  3.571282  5.240735
H  3.144729  3.551330  2.860466
H  4.707991  5.892672  0.618979
H  1.035011  1.192867  1.089776
H  1.975958  1.079449  2.268612
H  1.912109  4.741951  1.816699
H  2.984805  1.426998  1.875326
H  2.256843  5.312846  0.431091
H  1.918482  3.296918  1.567423
H  4.485642  5.977826  5.963392
H  0.461585  0.225875  4.118234
H  3.975211  1.223678  2.190038
H  5.604213  0.696432  2.384459
H  0.066719  4.764134  5.269816
H  0.483617  3.164750  5.666760
H  5.968942  0.150849  3.318389
H  1.813685  5.937790  0.362421
H  1.385546  0.860325  5.145839
H  5.374965  1.604679  1.215889
H  3.904590  0.816846  1.293171
H  5.530925  2.852877  4.333566
H  5.879402  5.451617  2.016194
H  4.359287  1.853854  2.416196
H  4.987225  2.442676  3.842988
H  0.951317  1.254843  1.068216
H  5.505881  4.316004  1.344277
H  5.385809  4.184675  1.202979
H  0.954899  1.524281  3.670925
H  1.548358  5.412083  0.569885
H  3.032388  5.194853  5.862019
H  4.139215  0.074404  5.775596
H  5.602268  2.474355  2.722896
H  5.920973  4.182098  0.355022
H  4.161182  5.950989  2.030972
H  0.442308  1.623149  1.194333
H  1.361147  1.420463  0.339941
H  0.793138  5.882976  5.981551
H  3.581477  2.511049  3.088561
H  5.504878  3.479771  0.280155
H  1.465086  1.218063  5.894254
H  2.381310  1.134220  5.381597
H  2.055788  2.793613  5.095538
H  3.672610  0.150812  0.944299
H  0.815901  5.120873  1.161431
H  4.322273  4.790599  4.739676
H  0.512675  3.118967  3.647175
H  1.288853  2.701771  0.839314
H  2.703774  0.590154  0.574622
H  3.744673  5.941489  0.053096
H  3.747389  1.151040  1.478365
H  2.989915  1.634401  4.868426
H  4.196177  2.616148  3.480050
H  4.302053  5.485399  3.161680
H  2.517636  5.404339  4.000518
H  3.917493  3.702833  5.174814
H  5.143070  5.567725  1.734083
H  4.631755  2.220373  0.315194
H  4.984563  1.029290  0.242378
H  5.155106  2.214652  4.073535
H  4.731974  2.047665  5.177125
H  3.552054  4.612891  0.352749
H  4.618284  0.549752  2.651162
H  4.728961  4.326393  3.882599
H  0.609343  4.331123  5.677143
H  0.222668  0.582460  0.994535
H  2.341098  0.376387  1.051528
H  2.311997  2.171480  2.124998
H  3.369257  0.932173  3.695173
H  0.504828  0.076733  3.030518
H  2.125628  1.007849  0.861190
H  2.293496  3.527227  0.316073
H  3.236419  5.206629  1.826631
H  5.851103  0.413957  3.197380
H  5.109692  3.382488  0.122071
H  2.650355  4.656782  0.246695
H  5.180314  4.543382  5.139241
H  4.403820  3.660881  4.392798
H  0.420602  3.320926  1.643492
H  4.282052  2.619725  2.871008
H  0.663606  4.770044  4.619450
H  1.167982  2.954970  3.509516
H  1.013202  0.173045  3.633333
H  1.384090  5.414467  4.699117
H  1.081641  1.538500  4.899162
H  0.207987  3.944351  5.427195
H  4.173090  0.602854  2.610922
H  2.406518  1.396397  3.091706
H  2.963306  3.667799  5.844091
H  3.043134  5.750292  5.103512
H  0.947316  1.409380  4.715789
H  5.562223  0.184696  3.076945
H  4.251477  5.087001  3.426171
H  5.583455  2.044343  0.351572
H  0.409510  1.678085  4.017452
H  1.082928  1.683312  0.241165
H  2.078139  5.976222  1.929090
H  1.935407  2.101184  2.118820
H  4.394037  3.422137  5.842663
H  2.014030  3.426433  3.487851
H  3.330270  1.112925  1.374483
H  2.274907  1.634216  5.950495
H  4.601637  4.650139  5.308291
H  3.627891  5.741748  3.760107
H  3.242245  3.922780  0.396112
H  0.806236  3.392443  3.965334
H  3.018986  4.076810  2.416887
H  1.930599  4.599693  0.421828
H  0.502408  2.197335  3.979334
H  4.400119  5.486115  3.482480
H  3.860989  3.744125  4.762445
H  1.656497  3.723431  2.466216
H  3.761581  2.407731  3.110412
H  5.766745  0.427583  3.890409
H  4.156479  5.467633  5.098111
H  3.101555  1.765155  4.009049
H  4.893244  3.548857  0.458927
H  3.253724  1.982462  5.427126
H  5.215135  1.290219  2.799287
H  5.156099  5.353493  1.263758
H  3.722790  3.106925  3.810352
H  1.709442  1.135021  3.664064
H  5.781783  4.456856  1.300184
H  4.678855  3.055185  4.076019
H  1.533428  2.687057  3.955623
H  4.509492  1.845632  3.857306
H  4.359764  1.937654  3.463080
H  3.908982  1.903657  1.808385
H  3.274963  2.145751  2.366580
H  5.102299  2.638167  1.636344
H  1.822128  2.196602  2.037626
H  3.219706  0.671102  4.491192
H  2.209143  4.982018  2.101634
H  4.658787  3.295308  5.952852
H  2.487785  4.818233  2.379847
H  1.179800  1.915976  3.623481
H  2.243903  0.793881  4.176852
H  0.199165  5.886682  2.362291
H  4.824730  1.475162  3.847399
H  5.276888  2.629712  5.852752
H  1.487913  3.212433  0.671786
H  4.287674  2.767345  5.749730
H  5.185569  1.968106  3.001054
H  3.938419  0.087049  3.912691
H  1.420225  4.328700  3.388061
H  4.348745  2.378247  1.593650
H  0.473979  5.602746  2.310294
H  3.032752  1.611122  1.638355
H  2.825666  1.990563  5.416053
H  2.428332  0.571005  0.857022
H  0.406519  4.191225  0.820683
H  0.886497  0.625033  1.377899
H  5.839343  0.234266  4.038610
H  4.384023  4.815176  5.487114
H  5.266130  2.149870  5.348328
H  4.926470  3.948326  5.514333
H  1.818599  0.224338  5.993007
H  3.413283  4.133471  1.105433
H  2.515403  3.134569  1.674407
H  2.889878  1.754067  3.799357
H  4.221647  2.775309  3.494568
H  3.927721  3.598043  2.977688
H  0.561944  5.851644  4.311164
H  5.198520  3.026242  1.216926
H  2.888160  2.006180  1.078378
H  2.250481  3.851518  1.973855
H  0.721588  1.870281  5.567965
H  5.432583  2.275983  0.522619
H  5.450103  5.852379  2.695668
H  2.146616  4.364538  1.151793
H  1.785893  3.231811  2.017971
H  1.401543  2.715112  2.714979
H  2.275224  1.984820  4.250760
H  4.391730  2.451801  1.540650
H  5.829471  0.287931  3.211848
H  1.621542  4.749988  0.844137
H  0.992184  0.936286  5.424033
H  5.759786  5.638379  1.712156
H  0.311204  2.744122  0.149805
H  2.758230  2.914139  1.440518
H  1.671158  5.291901  5.884634
H  3.065172  5.891569  5.502677
H  2.984404  4.620686  0.315453
H  1.588545  0.309639  2.451503
H  4.511838  1.092909  1.826188
H  1.473224  0.557007  0.590203
H  3.031555  1.115616  1.039875
H  0.394698  5.818705  1.943291
H  1.099620  3.305267  1.001784
H  1.105608  4.212566  5.740389
H  4.989164  0.065055  5.970099
H  0.674156  2.824835  1.075655
H  4.625622  0.006708  1.568936
H  1.670083  2.994077  0.130991
H  3.919502  3.998179  3.248112
H  3.030622  5.141406  3.825861
H  3.290122  5.046382  3.774574
